
  EPA STORM WATER MANAGEMENT MODEL - VERSION 5.2 (Build 5.2.3)
  ------------------------------------------------------------

  
  ****************
  Analysis Options
  ****************
  Flow Units ............... CMS
  Process Models:
    Rainfall/Runoff ........ YES
    RDII ................... NO
    Snowmelt ............... NO
    Groundwater ............ NO
    Flow Routing ........... YES
    Ponding Allowed ........ YES
    Water Quality .......... NO
  Infiltration Method ...... HORTON
  Flow Routing Method ...... DYNWAVE
  Surcharge Method ......... EXTRAN
  Starting Date ............ 06/01/2020 00:00:00
  Ending Date .............. 07/01/2020 00:00:00
  Antecedent Dry Days ...... 0.0
  Report Time Step ......... 00:05:00
  Wet Time Step ............ 00:00:15
  Dry Time Step ............ 01:00:00
  Routing Time Step ........ 8.00 sec
  Variable Time Step ....... YES
  Maximum Trials ........... 16
  Number of Threads ........ 2
  Head Tolerance ........... 0.000015 m
  
  
  **************************        Volume         Depth
  Runoff Quantity Continuity     hectare-m            mm
  **************************     ---------       -------
  Total Precipitation ......        28.033        87.497
  Evaporation Loss .........         0.000         0.000
  Infiltration Loss ........         1.946         6.073
  Surface Runoff ...........        25.874        80.760
  Final Storage ............         0.227         0.708
  Continuity Error (%) .....        -0.051
  
  
  **************************        Volume        Volume
  Flow Routing Continuity        hectare-m      10^6 ltr
  **************************     ---------     ---------
  Dry Weather Inflow .......         6.376        63.757
  Wet Weather Inflow .......        25.880       258.798
  Groundwater Inflow .......         0.000         0.000
  RDII Inflow ..............         0.000         0.000
  External Inflow ..........         0.000         0.000
  External Outflow .........        31.054       310.547
  Flooding Loss ............         0.000         0.000
  Evaporation Loss .........         0.000         0.000
  Exfiltration Loss ........         0.000         0.000
  Initial Stored Volume ....         0.000         0.000
  Final Stored Volume ......         0.188         1.883
  Continuity Error (%) .....         3.139
  
  
  *************************
  Highest Continuity Errors
  *************************
  Node j_2 (3.72%)
  
  
  ***************************
  Time-Step Critical Elements
  ***************************
  None
  
  
  ********************************
  Highest Flow Instability Indexes
  ********************************
  Link p_2_1 (8)
  
  
  *********************************
  Most Frequent Nonconverging Nodes
  *********************************
  Convergence obtained at all time steps.
  
  
  *************************
  Routing Time Step Summary
  *************************
  Minimum Time Step           :     7.95 sec
  Average Time Step           :     8.00 sec
  Maximum Time Step           :     8.00 sec
  % of Time in Steady State   :     0.00
  Average Iterations per Step :     6.18
  % of Steps Not Converging   :     0.35
  Time Step Frequencies       :
      8.000 -  2.899 sec      :   100.00 %
      2.899 -  1.051 sec      :     0.00 %
      1.051 -  0.381 sec      :     0.00 %
      0.381 -  0.138 sec      :     0.00 %
      0.138 -  0.050 sec      :     0.00 %
  
  
  ***************************
  Subcatchment Runoff Summary
  ***************************
  
  ------------------------------------------------------------------------------------------------------------------------------
                            Total      Total      Total      Total     Imperv       Perv      Total       Total     Peak  Runoff
                           Precip      Runon       Evap      Infil     Runoff     Runoff     Runoff      Runoff   Runoff   Coeff
  Subcatchment                 mm         mm         mm         mm         mm         mm         mm    10^6 ltr      CMS
  ------------------------------------------------------------------------------------------------------------------------------
  sub_1a                    64.86       0.00       0.00       9.28      45.84       9.20      55.04       36.88     5.02   0.849
  sub_21a                  101.96       0.00       0.00       5.98      83.11      12.53      95.65        8.28     0.50   0.938
  sub_10a                   64.86       0.00       0.00       3.71      56.64       3.67      60.32       34.93     4.36   0.930
  sub_2a                   101.96       0.00       0.00       3.71      89.78       7.77      97.55      112.62     6.68   0.957
  sub_2b                   101.96       0.00       0.00      21.15      36.42      44.31      80.73        6.21     0.43   0.792
  sub_2c                   101.96       0.00       0.00       7.20      78.81      15.08      93.89        8.73     0.53   0.921
  sub_21b                  101.96       0.00       0.00       0.06     100.74       0.12     100.86        3.07     0.18   0.989
  sub_21c                  101.96       0.00       0.00      29.12      12.04      61.00      73.04        1.23     0.09   0.716
  sub_2d                   101.96       0.00       0.00       8.41      74.98      17.61      92.59       12.39     0.77   0.908
  sub_2e                   101.96       0.00       0.00       9.20      72.79      19.26      92.06       11.41     0.71   0.903
  sub_2f                   101.96       0.00       0.00       1.29      97.42       2.70     100.12        3.81     0.22   0.982
  sub_20a                  101.96       0.00       0.00       5.94      83.14      12.44      95.58       19.19     1.16   0.937
  
  
  ******************
  Node Depth Summary
  ******************
  
  ---------------------------------------------------------------------------------
                                 Average  Maximum  Maximum  Time of Max    Reported
                                   Depth    Depth      HGL   Occurrence   Max Depth
  Node                 Type       Meters   Meters   Meters  days hr:min      Meters
  ---------------------------------------------------------------------------------
  cso_1                OUTFALL      0.00     0.00     8.91     0  00:00        0.00
  cso_20               OUTFALL      0.00     0.00     8.30     0  00:00        0.00
  cso_2a               OUTFALL      0.00     0.00     8.30     0  00:00        0.00
  cso_21a              OUTFALL      0.00     0.00     8.93     0  00:00        0.00
  cso_10               OUTFALL      0.00     0.00     8.31     0  00:00        0.00
  Wastewater_Treatment_Plant OUTFALL      0.00     0.00     9.11     0  00:00        0.00
  cso_21b              OUTFALL      0.00     0.00     9.12     0  00:00        0.00
  cso_2b               OUTFALL      0.00     0.00     9.12     0  00:00        0.00
  j_1                  STORAGE      0.28     2.17    11.24    11  22:35        2.17
  j_21                 STORAGE      0.25     2.25    12.26    16  20:15        2.25
  j_10                 STORAGE      0.20     1.28     9.69    12  01:55        1.28
  j_2                  STORAGE      0.30     2.76    10.55    16  20:15        2.76
  j_20                 STORAGE      0.61     2.05    10.94    13  09:15        2.05
  
  
  *******************
  Node Inflow Summary
  *******************
  
  -------------------------------------------------------------------------------------------------
                                  Maximum  Maximum                  Lateral       Total        Flow
                                  Lateral    Total  Time of Max      Inflow      Inflow     Balance
                                   Inflow   Inflow   Occurrence      Volume      Volume       Error
  Node                 Type           CMS      CMS  days hr:min    10^6 ltr    10^6 ltr     Percent
  -------------------------------------------------------------------------------------------------
  cso_1                OUTFALL      0.000    4.552    11  22:35           0        5.41       0.000
  cso_20               OUTFALL      0.000    0.740    13  09:15           0        6.46       0.000
  cso_2a               OUTFALL      0.000    4.407    16  20:15           0          29       0.000
  cso_21a              OUTFALL      0.000    0.409    16  20:15           0         1.4       0.000
  cso_10               OUTFALL      0.000    0.000     0  00:00           0           0       0.000 ltr
  Wastewater_Treatment_Plant OUTFALL      0.000    1.167     4  10:20           0         238       0.000
  cso_21b              OUTFALL      0.000    0.028     4  11:28           0         1.8       0.000
  cso_2b               OUTFALL      0.000    0.556     4  11:34           0        28.3       0.000
  j_1                  STORAGE      5.020    5.792    11  22:35        55.7         246       0.525
  j_21                 STORAGE      0.772    0.772     9  16:35        17.1        17.1       0.304
  j_10                 STORAGE      4.364    4.364    11  22:35        36.3        36.3       1.572
  j_2                  STORAGE      9.354    9.394     9  16:35         182         220       3.867
  j_20                 STORAGE      1.167    1.167     9  16:35        31.7        31.7       0.107
  
  
  **********************
  Node Surcharge Summary
  **********************
  
  No nodes were surcharged.
  
  
  *********************
  Node Flooding Summary
  *********************
  
  No nodes were flooded.
  
  
  **********************
  Storage Volume Summary
  **********************
  
  ------------------------------------------------------------------------------------------------
                         Average    Avg   Evap  Exfil     Maximum    Max    Time of Max    Maximum
                          Volume   Pcnt   Pcnt   Pcnt      Volume   Pcnt     Occurrence    Outflow
  Storage Unit           1000 m³   Full   Loss   Loss     1000 m³   Full    days hr:min        CMS
  ------------------------------------------------------------------------------------------------
  j_1                      0.218    6.1    0.0    0.0       3.246   91.1      11  22:35      5.719
  j_21                     0.052    3.9    0.0    0.0       1.177   90.0      16  20:15      0.478
  j_10                     0.082    0.7    0.0    0.0       5.128   44.0      12  01:55      0.275
  j_2                      0.336    2.1    0.0    0.0      12.184   77.0      16  20:15      5.463
  j_20                     0.384   14.0    0.0    0.0       2.143   78.2      13  09:15      0.755
  
  
  ***********************
  Outfall Loading Summary
  ***********************
  
  -----------------------------------------------------------
                         Flow       Avg       Max       Total
                         Freq      Flow      Flow      Volume
  Outfall Node           Pcnt       CMS       CMS    10^6 ltr
  -----------------------------------------------------------
  cso_1                  0.33     0.637     4.552       5.412
  cso_20                 1.91     0.131     0.740       6.464
  cso_2a                 0.80     1.394     4.407      28.973
  cso_21a                0.35     0.153     0.409       1.396
  cso_10                 0.00     0.000     0.000       0.000
  Wastewater_Treatment_Plant  21.53     0.427     1.167     238.169
  cso_21b                2.50     0.028     0.028       1.797
  cso_2b                 1.97     0.556     0.556      28.335
  -----------------------------------------------------------
  System                 3.67     3.324     7.698     310.546
  
  
  ********************
  Link Flow Summary
  ********************
  
  -----------------------------------------------------------------------------
                                 Maximum  Time of Max   Maximum    Max/    Max/
                                  |Flow|   Occurrence   |Veloc|    Full    Full
  Link                 Type          CMS  days hr:min     m/sec    Flow   Depth
  -----------------------------------------------------------------------------
  p_20_2               PUMP        0.015     3  11:45              1.00
  WWTP_inlet           PUMP        1.167     4  10:20              1.00
  p_21_2               PUMP        0.042     4  11:19              1.00
  CSO_Pump_21          PUMP        0.028     4  11:28              1.00
  p10_1                PUMP        0.275    12  01:55              0.40
  p_2_1                PUMP        0.500     4  11:13              1.00
  CSO_Pump_2           PUMP        0.556     4  11:34              1.00
  cso_weir_1           WEIR        4.552    11  22:35                      0.17
  cso_weir_20          WEIR        0.740    13  09:15                      0.07
  cso_weir_2           WEIR        4.407    16  20:15                      0.14
  cso_weir_21          WEIR        0.409    16  20:15                      0.04
  cso_weir_10          WEIR        0.000     0  00:00                      0.00
  
  
  ***************************
  Flow Classification Summary
  ***************************
  
  -------------------------------------------------------------------------------------
                      Adjusted    ---------- Fraction of Time in Flow Class ---------- 
                       /Actual         Up    Down  Sub   Sup   Up    Down  Norm  Inlet 
  Conduit               Length    Dry  Dry   Dry   Crit  Crit  Crit  Crit  Ltd   Ctrl  
  -------------------------------------------------------------------------------------
  
  
  *************************
  Conduit Surcharge Summary
  *************************
  
  No conduits were surcharged.
  
  
  ***************
  Pumping Summary
  ***************
  
  ---------------------------------------------------------------------------------------------------------
                                                  Min       Avg       Max     Total     Power    % Time Off
                        Percent   Number of      Flow      Flow      Flow    Volume     Usage    Pump Curve
  Pump                 Utilized   Start-Ups       CMS       CMS       CMS  10^6 ltr     Kw-hr    Low   High
  ---------------------------------------------------------------------------------------------------------
  p_20_2                 100.00           1      0.00      0.01      0.01    24.499    111.52    0.0   44.7
  WWTP_inlet              21.53         827      0.00      0.43      1.17   238.170    524.35    0.0    0.0
  p_21_2                  18.50         254      0.00      0.03      0.04    13.819     64.33    0.0    0.0
  CSO_Pump_21              2.50           4      0.00      0.03      0.03     1.797     11.64    0.0    0.0
  p10_1                    5.07         149      0.00      0.27      0.27    35.698    112.98    0.0    0.0
  p_2_1                   15.32       17254      0.00      0.39      0.50   154.576    336.70    0.0    0.0
  CSO_Pump_2               1.97           4      0.00      0.56      0.56    28.335     81.87    0.0    0.0
  

  Analysis begun on:  Mon May  6 15:37:49 2024
  Analysis ended on:  Mon May  6 15:37:58 2024
  Total elapsed time: 00:00:09