
  EPA STORM WATER MANAGEMENT MODEL - VERSION 5.2 (Build 5.2.4)
  PYSWMM TOOLKIT API - VERSION v1.0 (2023-11-27)
  ------------------------------------------------------------

  
  ****************
  Analysis Options
  ****************
  Flow Units ............... CMS
  Process Models:
    Rainfall/Runoff ........ YES
    RDII ................... NO
    Snowmelt ............... NO
    Groundwater ............ NO
    Flow Routing ........... YES
    Ponding Allowed ........ YES
    Water Quality .......... NO
  Infiltration Method ...... HORTON
  Flow Routing Method ...... DYNWAVE
  Surcharge Method ......... EXTRAN
  Starting Date ............ 12/10/2020 00:00:00
  Ending Date .............. 12/20/2020 00:00:00
  Antecedent Dry Days ...... 0.0
  Report Time Step ......... 00:15:00
  Wet Time Step ............ 00:00:15
  Dry Time Step ............ 01:00:00
  Routing Time Step ........ 8.00 sec
  Variable Time Step ....... YES
  Maximum Trials ........... 16
  Number of Threads ........ 2
  Head Tolerance ........... 0.000015 m
  
  
  **************************        Volume         Depth
  Runoff Quantity Continuity     hectare-m            mm
  **************************     ---------       -------
  Total Precipitation ......         0.884         2.759
  Evaporation Loss .........         0.000         0.000
  Infiltration Loss ........         0.131         0.410
  Surface Runoff ...........         0.527         1.644
  Final Storage ............         0.227         0.708
  Continuity Error (%) .....        -0.122
  
  
  **************************        Volume        Volume
  Flow Routing Continuity        hectare-m      10^6 ltr
  **************************     ---------     ---------
  Dry Weather Inflow .......         0.432         4.318
  Wet Weather Inflow .......         0.527         5.268
  Groundwater Inflow .......         0.000         0.000
  RDII Inflow ..............         0.000         0.000
  External Inflow ..........         0.000         0.000
  External Outflow .........         0.605         6.048
  Flooding Loss ............         0.000         0.000
  Evaporation Loss .........         0.000         0.000
  Exfiltration Loss ........         0.000         0.000
  Initial Stored Volume ....         0.000         0.000
  Final Stored Volume ......         0.307         3.069
  Continuity Error (%) .....         4.894
  
  
  *************************
  Highest Continuity Errors
  *************************
  Node j_2 (7.52%)
  
  
  ***************************
  Time-Step Critical Elements
  ***************************
  None
  
  
  ********************************
  Highest Flow Instability Indexes
  ********************************
  Link p10_1 (79)
  Link p_2_1 (7)
  Link cso_weir_1 (4)
  
  
  *********************************
  Most Frequent Nonconverging Nodes
  *********************************
  Convergence obtained at all time steps.
  
  
  *************************
  Routing Time Step Summary
  *************************
  Minimum Time Step           :     8.00 sec
  Average Time Step           :     8.00 sec
  Maximum Time Step           :     8.00 sec
  % of Time in Steady State   :     0.00
  Average Iterations per Step :     5.54
  % of Steps Not Converging   :     0.46
  Time Step Frequencies       :
      8.000 -  2.899 sec      :   100.00 %
      2.899 -  1.051 sec      :     0.00 %
      1.051 -  0.381 sec      :     0.00 %
      0.381 -  0.138 sec      :     0.00 %
      0.138 -  0.050 sec      :     0.00 %
  
  
  ***************************
  Subcatchment Runoff Summary
  ***************************
  
  ------------------------------------------------------------------------------------------------------------------------------
                            Total      Total      Total      Total     Imperv       Perv      Total       Total     Peak  Runoff
                           Precip      Runon       Evap      Infil     Runoff     Runoff     Runoff      Runoff   Runoff   Coeff
  Subcatchment                 mm         mm         mm         mm         mm         mm         mm    10^6 ltr      CMS
  ------------------------------------------------------------------------------------------------------------------------------
  sub_1a                     2.57       0.00       0.00       0.52       1.26       0.21       1.47        0.98     0.52   0.571
  sub_21a                    2.88       0.00       0.00       0.45       1.98       0.07       2.04        0.18     0.04   0.710
  sub_10a                    2.57       0.00       0.00       0.21       1.43       0.08       1.51        0.87     0.47   0.587
  sub_2a                     2.88       0.00       0.00       0.28       1.82       0.04       1.86        2.15     0.59   0.647
  sub_2b                     2.88       0.00       0.00       1.61       0.76       0.24       1.00        0.08     0.03   0.349
  sub_2c                     2.88       0.00       0.00       0.55       1.32       0.08       1.40        0.13     0.05   0.487
  sub_21b                    2.88       0.00       0.00       0.00       1.84       0.00       1.84        0.06     0.02   0.639
  sub_21c                    2.88       0.00       0.00       2.21       0.28       0.33       0.61        0.01     0.01   0.212
  sub_2d                     2.88       0.00       0.00       0.64       1.12       0.09       1.21        0.16     0.07   0.420
  sub_2e                     2.88       0.00       0.00       0.70       1.29       0.10       1.39        0.17     0.06   0.484
  sub_2f                     2.88       0.00       0.00       0.10       2.20       0.01       2.22        0.08     0.02   0.771
  sub_20a                    2.88       0.00       0.00       0.45       1.87       0.07       1.94        0.39     0.10   0.673
  
  
  ******************
  Node Depth Summary
  ******************
  
  ---------------------------------------------------------------------------------
                                 Average  Maximum  Maximum  Time of Max    Reported
                                   Depth    Depth      HGL   Occurrence   Max Depth
  Node                 Type       Meters   Meters   Meters  days hr:min      Meters
  ---------------------------------------------------------------------------------
  cso_1                OUTFALL      0.00     0.00     8.91     0  00:00        0.00
  cso_20               OUTFALL      0.00     0.00     8.30     0  00:00        0.00
  cso_2a               OUTFALL      0.00     0.00     8.30     0  00:00        0.00
  cso_21a              OUTFALL      0.00     0.00     8.93     0  00:00        0.00
  cso_10               OUTFALL      0.00     0.00     8.31     0  00:00        0.00
  Wastewater_Treatment_Plant OUTFALL      0.00     0.00     9.11     0  00:00        0.00
  cso_21b              OUTFALL      0.00     0.00     9.12     0  00:00        0.00
  cso_2b               OUTFALL      0.00     0.00     9.12     0  00:00        0.00
  j_1                  STORAGE      1.19     1.94    11.01     1  19:33        1.94
  j_21                 STORAGE      0.20     0.42    10.43     1  15:05        0.41
  j_10                 STORAGE      0.01     0.43     8.84     1  19:35        0.40
  j_2                  STORAGE      0.19     1.43     9.22     1  15:05        1.42
  j_20                 STORAGE      0.18     1.10     9.99     1  18:05        1.10
  
  
  *******************
  Node Inflow Summary
  *******************
  
  -------------------------------------------------------------------------------------------------
                                  Maximum  Maximum                  Lateral       Total        Flow
                                  Lateral    Total  Time of Max      Inflow      Inflow     Balance
                                   Inflow   Inflow   Occurrence      Volume      Volume       Error
  Node                 Type           CMS      CMS  days hr:min    10^6 ltr    10^6 ltr     Percent
  -------------------------------------------------------------------------------------------------
  cso_1                OUTFALL      0.000    0.839     1  19:33           0        6.05       0.000
  cso_20               OUTFALL      0.000    0.000     0  00:00           0           0       0.000 ltr
  cso_2a               OUTFALL      0.000    0.000     0  00:00           0           0       0.000 ltr
  cso_21a              OUTFALL      0.000    0.000     0  00:00           0           0       0.000 ltr
  cso_10               OUTFALL      0.000    0.000     0  00:00           0           0       0.000 ltr
  Wastewater_Treatment_Plant OUTFALL      0.000    0.000     0  00:00           0    4.97e-08       0.000 ltr
  cso_21b              OUTFALL      0.000    0.000     0  00:00           0    2.79e-09       0.000 ltr
  cso_2b               OUTFALL      0.000    0.000     0  00:00           0    5.01e-07       0.000 ltr
  j_1                  STORAGE      0.526    1.111     1  19:33        2.26        9.08      -0.217
  j_21                 STORAGE      0.069    0.069     1  14:20       0.549       0.549       0.313
  j_10                 STORAGE      0.471    0.471     1  19:35       0.965       0.965       0.932
  j_2                  STORAGE      0.834    0.874     1  14:20        4.58        6.34       8.137
  j_20                 STORAGE      0.108    0.108     1  14:20        1.23        1.23       0.083
  
  
  **********************
  Node Surcharge Summary
  **********************
  
  No nodes were surcharged.
  
  
  *********************
  Node Flooding Summary
  *********************
  
  No nodes were flooded.
  
  
  **********************
  Storage Volume Summary
  **********************
  
  ------------------------------------------------------------------------------------------------
                         Average    Avg   Evap  Exfil     Maximum    Max    Time of Max    Maximum
                          Volume   Pcnt   Pcnt   Pcnt      Volume   Pcnt     Occurrence    Outflow
  Storage Unit           1000 m³   Full   Loss   Loss     1000 m³   Full    days hr:min        CMS
  ------------------------------------------------------------------------------------------------
  j_1                      1.857   52.1    0.0    0.0       3.128   87.7       1  19:33      0.839
  j_21                     0.011    0.9    0.0    0.0       0.074    5.6       1  15:05      0.025
  j_10                     0.002    0.0    0.0    0.0       0.230    2.0       1  19:35      0.272
  j_2                      0.014    0.1    0.0    0.0       0.585    3.7       1  15:05      0.366
  j_20                     0.033    1.2    0.0    0.0       0.281   10.3       1  18:05      0.015
  
  
  ***********************
  Outfall Loading Summary
  ***********************
  
  -----------------------------------------------------------
                         Flow       Avg       Max       Total
                         Freq      Flow      Flow      Volume
  Outfall Node           Pcnt       CMS       CMS    10^6 ltr
  -----------------------------------------------------------
  cso_1                 28.00     0.116     0.839       6.048
  cso_20                 0.00     0.000     0.000       0.000
  cso_2a                 0.00     0.000     0.000       0.000
  cso_21a                0.00     0.000     0.000       0.000
  cso_10                 0.00     0.000     0.000       0.000
  Wastewater_Treatment_Plant   0.00     0.000     0.000       0.000
  cso_21b                0.00     0.000     0.000       0.000
  cso_2b                 0.00     0.000     0.000       0.000
  -----------------------------------------------------------
  System                 3.50     0.116     0.839       6.048
  
  
  ********************
  Link Flow Summary
  ********************
  
  -----------------------------------------------------------------------------
                                 Maximum  Time of Max   Maximum    Max/    Max/
                                  |Flow|   Occurrence   |Veloc|    Full    Full
  Link                 Type          CMS  days hr:min     m/sec    Flow   Depth
  -----------------------------------------------------------------------------
  p_20_2               PUMP        0.015     1  13:54              1.00
  WWTP_inlet           PUMP        0.000     0  00:00              0.00
  p_21_2               PUMP        0.025     0  07:36              0.60
  CSO_Pump_21          PUMP        0.000     0  00:00              0.00
  p10_1                PUMP        0.272     1  19:15              0.39
  p_2_1                PUMP        0.366     1  15:05              0.73
  CSO_Pump_2           PUMP        0.000     0  00:00              0.00
  cso_weir_1           WEIR        0.839     1  19:33                      0.06
  cso_weir_20          WEIR        0.000     0  00:00                      0.00
  cso_weir_2           WEIR        0.000     0  00:00                      0.00
  cso_weir_21          WEIR        0.000     0  00:00                      0.00
  cso_weir_10          WEIR        0.000     0  00:00                      0.00
  
  
  ***************************
  Flow Classification Summary
  ***************************
  
  -------------------------------------------------------------------------------------
                      Adjusted    ---------- Fraction of Time in Flow Class ---------- 
                       /Actual         Up    Down  Sub   Sup   Up    Down  Norm  Inlet 
  Conduit               Length    Dry  Dry   Dry   Crit  Crit  Crit  Crit  Ltd   Ctrl  
  -------------------------------------------------------------------------------------
  
  
  *************************
  Conduit Surcharge Summary
  *************************
  
  No conduits were surcharged.
  
  
  ***************
  Pumping Summary
  ***************
  
  ---------------------------------------------------------------------------------------------------------
                                                  Min       Avg       Max     Total     Power    % Time Off
                        Percent   Number of      Flow      Flow      Flow    Volume     Usage    Pump Curve
  Pump                 Utilized   Start-Ups       CMS       CMS       CMS  10^6 ltr     Kw-hr    Low   High
  ---------------------------------------------------------------------------------------------------------
  p_20_2                 100.00           1      0.00      0.01      0.01     1.234      4.19    0.0   19.1
  WWTP_inlet               0.00           0      0.00      0.00      0.00     0.000      0.00    0.0    0.0
  p_21_2                  11.40          19      0.00      0.02      0.03     0.533      2.77    0.0    0.0
  CSO_Pump_21              0.00           0      0.00      0.00      0.00     0.000      0.00    0.0    0.0
  p10_1                   99.98           5      0.00      0.01      0.27     0.956      5.86    0.0    0.0
  p_2_1                    9.44        1043      0.00      0.33      0.37     5.866     34.94    0.0    0.0
  CSO_Pump_2               0.00           1      0.00      0.00      0.00     0.000      0.00    0.0    0.0
  

  Analysis begun on:  Tue May 21 15:22:28 2024
  Analysis ended on:  Tue May 21 15:22:47 2024
  Total elapsed time: 00:00:19