
  EPA STORM WATER MANAGEMENT MODEL - VERSION 5.2 (Build 5.2.4)
  PYSWMM TOOLKIT API - VERSION v1.0 (2023-11-27)
  ------------------------------------------------------------

  
  ****************
  Analysis Options
  ****************
  Flow Units ............... CMS
  Process Models:
    Rainfall/Runoff ........ YES
    RDII ................... NO
    Snowmelt ............... NO
    Groundwater ............ NO
    Flow Routing ........... YES
    Ponding Allowed ........ YES
    Water Quality .......... NO
  Infiltration Method ...... HORTON
  Flow Routing Method ...... DYNWAVE
  Surcharge Method ......... EXTRAN
  Starting Date ............ 09/22/2020 00:00:00
  Ending Date .............. 09/30/2020 00:00:00
  Antecedent Dry Days ...... 0.0
  Report Time Step ......... 00:15:00
  Wet Time Step ............ 00:00:15
  Dry Time Step ............ 01:00:00
  Routing Time Step ........ 8.00 sec
  Variable Time Step ....... YES
  Maximum Trials ........... 16
  Number of Threads ........ 2
  Head Tolerance ........... 0.000015 m
  
  
  **************************        Volume         Depth
  Runoff Quantity Continuity     hectare-m            mm
  **************************     ---------       -------
  Total Precipitation ......        14.441        45.073
  Evaporation Loss .........         0.000         0.000
  Infiltration Loss ........         0.907         2.831
  Surface Runoff ...........        13.313        41.553
  Final Storage ............         0.227         0.708
  Continuity Error (%) .....        -0.042
  
  
  **************************        Volume        Volume
  Flow Routing Continuity        hectare-m      10^6 ltr
  **************************     ---------     ---------
  Dry Weather Inflow .......         1.700        17.002
  Wet Weather Inflow .......        13.313       133.136
  Groundwater Inflow .......         0.000         0.000
  RDII Inflow ..............         0.000         0.000
  External Inflow ..........         0.000         0.000
  External Outflow .........        14.621       146.215
  Flooding Loss ............         0.000         0.000
  Evaporation Loss .........         0.000         0.000
  Exfiltration Loss ........         0.000         0.000
  Initial Stored Volume ....         0.000         0.000
  Final Stored Volume ......         0.035         0.352
  Continuity Error (%) .....         2.378
  
  
  *************************
  Highest Continuity Errors
  *************************
  Node j_2 (3.32%)
  
  
  ***************************
  Time-Step Critical Elements
  ***************************
  None
  
  
  ********************************
  Highest Flow Instability Indexes
  ********************************
  Link p_2_1 (9)
  Link WWTP_inlet (2)
  
  
  *********************************
  Most Frequent Nonconverging Nodes
  *********************************
  Convergence obtained at all time steps.
  
  
  *************************
  Routing Time Step Summary
  *************************
  Minimum Time Step           :     7.95 sec
  Average Time Step           :     8.00 sec
  Maximum Time Step           :     8.00 sec
  % of Time in Steady State   :     0.00
  Average Iterations per Step :     6.76
  % of Steps Not Converging   :     0.32
  Time Step Frequencies       :
      8.000 -  2.899 sec      :   100.00 %
      2.899 -  1.051 sec      :     0.00 %
      1.051 -  0.381 sec      :     0.00 %
      0.381 -  0.138 sec      :     0.00 %
      0.138 -  0.050 sec      :     0.00 %
  
  
  ***************************
  Subcatchment Runoff Summary
  ***************************
  
  ------------------------------------------------------------------------------------------------------------------------------
                            Total      Total      Total      Total     Imperv       Perv      Total       Total     Peak  Runoff
                           Precip      Runon       Evap      Infil     Runoff     Runoff     Runoff      Runoff   Runoff   Coeff
  Subcatchment                 mm         mm         mm         mm         mm         mm         mm    10^6 ltr      CMS
  ------------------------------------------------------------------------------------------------------------------------------
  sub_1a                    44.39       0.00       0.00       4.17      31.20       8.47      39.67       26.58     2.99   0.894
  sub_21a                   45.51       0.00       0.00       2.87      36.89       5.38      42.27        3.66     0.43   0.929
  sub_10a                   44.39       0.00       0.00       1.66      38.50       3.38      41.88       24.25     2.60   0.944
  sub_2a                    45.51       0.00       0.00       1.78      39.67       3.34      43.01       49.65     5.76   0.945
  sub_2b                    45.51       0.00       0.00      10.13      16.11      19.04      35.14        2.70     0.38   0.772
  sub_2c                    45.51       0.00       0.00       3.45      34.67       6.48      41.15        3.83     0.46   0.904
  sub_21b                   45.51       0.00       0.00       0.03      44.40       0.05      44.45        1.35     0.15   0.977
  sub_21c                   45.51       0.00       0.00      13.95       5.34      26.21      31.55        0.53     0.08   0.693
  sub_2d                    45.51       0.00       0.00       4.03      32.91       7.57      40.48        5.42     0.66   0.889
  sub_2e                    45.51       0.00       0.00       4.41      32.06       8.28      40.33        5.00     0.61   0.886
  sub_2f                    45.51       0.00       0.00       0.62      43.17       1.16      44.33        1.69     0.19   0.974
  sub_20a                   45.51       0.00       0.00       2.84      36.84       5.34      42.19        8.47     1.00   0.927
  
  
  ******************
  Node Depth Summary
  ******************
  
  ---------------------------------------------------------------------------------
                                 Average  Maximum  Maximum  Time of Max    Reported
                                   Depth    Depth      HGL   Occurrence   Max Depth
  Node                 Type       Meters   Meters   Meters  days hr:min      Meters
  ---------------------------------------------------------------------------------
  cso_1                OUTFALL      0.00     0.00     8.91     0  00:00        0.00
  cso_20               OUTFALL      0.00     0.00     8.30     0  00:00        0.00
  cso_2a               OUTFALL      0.00     0.00     8.30     0  00:00        0.00
  cso_21a              OUTFALL      0.00     0.00     8.93     0  00:00        0.00
  cso_10               OUTFALL      0.00     0.00     8.31     0  00:00        0.00
  Wastewater_Treatment_Plant OUTFALL      0.00     0.00     9.11     0  00:00        0.00
  cso_21b              OUTFALL      0.00     0.00     9.12     0  00:00        0.00
  cso_2b               OUTFALL      0.00     0.00     9.12     0  00:00        0.00
  j_1                  STORAGE      0.34     2.01    11.08     5  00:15        2.01
  j_21                 STORAGE      0.34     2.28    12.29     5  01:20        2.26
  j_10                 STORAGE      0.28     2.26    10.67     5  00:15        2.26
  j_2                  STORAGE      0.39     2.79    10.58     5  01:20        2.69
  j_20                 STORAGE      1.14     2.07    10.96     5  01:20        2.04
  
  
  *******************
  Node Inflow Summary
  *******************
  
  -------------------------------------------------------------------------------------------------
                                  Maximum  Maximum                  Lateral       Total        Flow
                                  Lateral    Total  Time of Max      Inflow      Inflow     Balance
                                   Inflow   Inflow   Occurrence      Volume      Volume       Error
  Node                 Type           CMS      CMS  days hr:min    10^6 ltr    10^6 ltr     Percent
  -------------------------------------------------------------------------------------------------
  cso_1                OUTFALL      0.000    1.766     5  00:15           0        3.84       0.000
  cso_20               OUTFALL      0.000    0.935     5  01:20           0         3.3       0.000
  cso_2a               OUTFALL      0.000    5.032     5  01:20           0        7.38       0.000
  cso_21a              OUTFALL      0.000    0.638     5  01:20           0        1.69       0.000
  cso_10               OUTFALL      0.000    0.304     5  00:15           0       0.126       0.000
  Wastewater_Treatment_Plant OUTFALL      0.000    1.167     3  22:32           0         110       0.000
  cso_21b              OUTFALL      0.000    0.028     4  20:18           0       0.916       0.000
  cso_2b               OUTFALL      0.000    0.556     3  23:13           0        18.8       0.000
  j_1                  STORAGE      2.987    3.572     3  22:14        31.6         114       0.393
  j_21                 STORAGE      0.666    0.666     5  01:15        6.75        6.75       0.173
  j_10                 STORAGE      2.596    2.596     3  22:15        24.6        24.6       0.682
  j_2                  STORAGE      8.066    8.081     5  01:15        75.4        87.7       3.436
  j_20                 STORAGE      1.000    1.000     5  01:15        11.8        11.8       0.263
  
  
  **********************
  Node Surcharge Summary
  **********************
  
  No nodes were surcharged.
  
  
  *********************
  Node Flooding Summary
  *********************
  
  No nodes were flooded.
  
  
  **********************
  Storage Volume Summary
  **********************
  
  ------------------------------------------------------------------------------------------------
                         Average    Avg   Evap  Exfil     Maximum    Max    Time of Max    Maximum
                          Volume   Pcnt   Pcnt   Pcnt      Volume   Pcnt     Occurrence    Outflow
  Storage Unit           1000 m³   Full   Loss   Loss     1000 m³   Full    days hr:min        CMS
  ------------------------------------------------------------------------------------------------
  j_1                      0.384   10.8    0.0    0.0       3.170   88.9       5  00:15      2.932
  j_21                     0.107    8.2    0.0    0.0       1.182   90.3       5  01:20      0.666
  j_10                     0.527    4.5    0.0    0.0      10.918   93.6       5  00:15      0.999
  j_2                      0.461    2.9    0.0    0.0      12.331   78.0       5  01:20      6.088
  j_20                     0.649   23.7    0.0    0.0       2.177   79.4       5  01:20      0.950
  
  
  ***********************
  Outfall Loading Summary
  ***********************
  
  -----------------------------------------------------------
                         Flow       Avg       Max       Total
                         Freq      Flow      Flow      Volume
  Outfall Node           Pcnt       CMS       CMS    10^6 ltr
  -----------------------------------------------------------
  cso_1                  1.03     0.538     1.766       3.841
  cso_20                 3.10     0.154     0.935       3.296
  cso_2a                 0.92     1.166     5.032       7.380
  cso_21a                1.90     0.129     0.638       1.691
  cso_10                 0.11     0.159     0.304       0.126
  Wastewater_Treatment_Plant  33.66     0.474     1.167     110.179
  cso_21b                4.77     0.028     0.028       0.916
  cso_2b                 4.89     0.555     0.556      18.785
  -----------------------------------------------------------
  System                 6.30     3.203     8.012     146.214
  
  
  ********************
  Link Flow Summary
  ********************
  
  -----------------------------------------------------------------------------
                                 Maximum  Time of Max   Maximum    Max/    Max/
                                  |Flow|   Occurrence   |Veloc|    Full    Full
  Link                 Type          CMS  days hr:min     m/sec    Flow   Depth
  -----------------------------------------------------------------------------
  p_20_2               PUMP        0.015     0  00:37              1.00
  WWTP_inlet           PUMP        1.167     3  22:32              1.00
  p_21_2               PUMP        0.042     2  02:12              1.00
  CSO_Pump_21          PUMP        0.028     4  20:18              1.00
  p10_1                PUMP        0.694     5  00:08              1.00
  p_2_1                PUMP        0.500     4  20:02              1.00
  CSO_Pump_2           PUMP        0.556     3  23:13              1.00
  cso_weir_1           WEIR        1.766     5  00:15                      0.09
  cso_weir_20          WEIR        0.935     5  01:20                      0.09
  cso_weir_2           WEIR        5.032     5  01:20                      0.16
  cso_weir_21          WEIR        0.638     5  01:20                      0.06
  cso_weir_10          WEIR        0.304     5  00:15                      0.03
  
  
  ***************************
  Flow Classification Summary
  ***************************
  
  -------------------------------------------------------------------------------------
                      Adjusted    ---------- Fraction of Time in Flow Class ---------- 
                       /Actual         Up    Down  Sub   Sup   Up    Down  Norm  Inlet 
  Conduit               Length    Dry  Dry   Dry   Crit  Crit  Crit  Crit  Ltd   Ctrl  
  -------------------------------------------------------------------------------------
  
  
  *************************
  Conduit Surcharge Summary
  *************************
  
  No conduits were surcharged.
  
  
  ***************
  Pumping Summary
  ***************
  
  ---------------------------------------------------------------------------------------------------------
                                                  Min       Avg       Max     Total     Power    % Time Off
                        Percent   Number of      Flow      Flow      Flow    Volume     Usage    Pump Curve
  Pump                 Utilized   Start-Ups       CMS       CMS       CMS  10^6 ltr     Kw-hr    Low   High
  ---------------------------------------------------------------------------------------------------------
  p_20_2                  78.99         178      0.00      0.01      0.01     8.189     45.85    0.0  100.0
  WWTP_inlet              33.66         674      0.00      0.47      1.17   110.179    291.79    0.0    0.0
  p_21_2                  22.06          67      0.00      0.03      0.04     4.128     25.17    0.0    0.0
  CSO_Pump_21              4.77           1      0.00      0.03      0.03     0.916      6.79    0.0    0.0
  p10_1                   12.08         219      0.00      0.29      0.69    24.287     56.77    0.0    0.0
  p_2_1                   21.93        5337      0.00      0.39      0.50    58.596    132.42    0.0    0.0
  CSO_Pump_2               4.89           3      0.00      0.56      0.56    18.785     49.69    0.0    0.0
  

  Analysis begun on:  Mon Jun 17 12:51:00 2024
  Analysis ended on:  Mon Jun 17 12:52:10 2024
  Total elapsed time: 00:01:10