
  EPA STORM WATER MANAGEMENT MODEL - VERSION 5.2 (Build 5.2.4)
  PYSWMM TOOLKIT API - VERSION v1.0 (2023-11-27)
  ------------------------------------------------------------

  
  ****************
  Analysis Options
  ****************
  Flow Units ............... CMS
  Process Models:
    Rainfall/Runoff ........ YES
    RDII ................... NO
    Snowmelt ............... NO
    Groundwater ............ NO
    Flow Routing ........... YES
    Ponding Allowed ........ YES
    Water Quality .......... NO
  Infiltration Method ...... HORTON
  Flow Routing Method ...... DYNWAVE
  Surcharge Method ......... EXTRAN
  Starting Date ............ 09/22/2020 00:00:00
  Ending Date .............. 09/30/2020 00:00:00
  Antecedent Dry Days ...... 0.0
  Report Time Step ......... 00:15:00
  Wet Time Step ............ 00:00:15
  Dry Time Step ............ 01:00:00
  Routing Time Step ........ 8.00 sec
  Variable Time Step ....... YES
  Maximum Trials ........... 16
  Number of Threads ........ 2
  Head Tolerance ........... 0.000015 m
  
  
  **************************        Volume         Depth
  Runoff Quantity Continuity     hectare-m            mm
  **************************     ---------       -------
  Total Precipitation ......        14.441        45.073
  Evaporation Loss .........         0.000         0.000
  Infiltration Loss ........         0.907         2.831
  Surface Runoff ...........        13.313        41.553
  Final Storage ............         0.227         0.708
  Continuity Error (%) .....        -0.042
  
  
  **************************        Volume        Volume
  Flow Routing Continuity        hectare-m      10^6 ltr
  **************************     ---------     ---------
  Dry Weather Inflow .......         1.700        17.002
  Wet Weather Inflow .......        13.314       133.140
  Groundwater Inflow .......         0.000         0.000
  RDII Inflow ..............         0.000         0.000
  External Inflow ..........         0.000         0.000
  External Outflow .........        14.924       149.241
  Flooding Loss ............         0.000         0.000
  Evaporation Loss .........         0.000         0.000
  Exfiltration Loss ........         0.000         0.000
  Initial Stored Volume ....         0.000         0.000
  Final Stored Volume ......         0.704         7.045
  Continuity Error (%) .....        -4.092
  
  
  *************************
  Highest Continuity Errors
  *************************
  Node j_2 (-9.70%)
  Node j_1 (2.09%)
  
  
  ***************************
  Time-Step Critical Elements
  ***************************
  None
  
  
  ********************************
  Highest Flow Instability Indexes
  ********************************
  Link CSO_Pump_2 (75)
  Link p_2_1 (40)
  Link WWTP_inlet (23)
  Link p10_1 (1)
  
  
  *********************************
  Most Frequent Nonconverging Nodes
  *********************************
  Convergence obtained at all time steps.
  
  
  *************************
  Routing Time Step Summary
  *************************
  Minimum Time Step           :     0.52 sec
  Average Time Step           :     7.96 sec
  Maximum Time Step           :     8.00 sec
  % of Time in Steady State   :     0.00
  Average Iterations per Step :     9.43
  % of Steps Not Converging   :    46.83
  Time Step Frequencies       :
      8.000 -  2.899 sec      :   100.00 %
      2.899 -  1.051 sec      :     0.00 %
      1.051 -  0.381 sec      :     0.00 %
      0.381 -  0.138 sec      :     0.00 %
      0.138 -  0.050 sec      :     0.00 %
  
  
  ***************************
  Subcatchment Runoff Summary
  ***************************
  
  ------------------------------------------------------------------------------------------------------------------------------
                            Total      Total      Total      Total     Imperv       Perv      Total       Total     Peak  Runoff
                           Precip      Runon       Evap      Infil     Runoff     Runoff     Runoff      Runoff   Runoff   Coeff
  Subcatchment                 mm         mm         mm         mm         mm         mm         mm    10^6 ltr      CMS
  ------------------------------------------------------------------------------------------------------------------------------
  sub_1a                    44.39       0.00       0.00       4.17      31.20       8.47      39.67       26.58     2.99   0.894
  sub_21a                   45.51       0.00       0.00       2.87      36.89       5.38      42.27        3.66     0.43   0.929
  sub_10a                   44.39       0.00       0.00       1.66      38.50       3.38      41.88       24.25     2.60   0.944
  sub_2a                    45.51       0.00       0.00       1.78      39.67       3.34      43.01       49.65     5.76   0.945
  sub_2b                    45.51       0.00       0.00      10.13      16.11      19.04      35.14        2.70     0.38   0.772
  sub_2c                    45.51       0.00       0.00       3.45      34.67       6.48      41.15        3.83     0.46   0.904
  sub_21b                   45.51       0.00       0.00       0.03      44.40       0.05      44.45        1.35     0.15   0.977
  sub_21c                   45.51       0.00       0.00      13.95       5.34      26.21      31.55        0.53     0.08   0.693
  sub_2d                    45.51       0.00       0.00       4.03      32.91       7.57      40.48        5.42     0.66   0.889
  sub_2e                    45.51       0.00       0.00       4.41      32.06       8.28      40.33        5.00     0.61   0.886
  sub_2f                    45.51       0.00       0.00       0.62      43.17       1.16      44.33        1.69     0.19   0.974
  sub_20a                   45.51       0.00       0.00       2.84      36.84       5.34      42.19        8.47     1.00   0.927
  
  
  ******************
  Node Depth Summary
  ******************
  
  ---------------------------------------------------------------------------------
                                 Average  Maximum  Maximum  Time of Max    Reported
                                   Depth    Depth      HGL   Occurrence   Max Depth
  Node                 Type       Meters   Meters   Meters  days hr:min      Meters
  ---------------------------------------------------------------------------------
  cso_1                OUTFALL      0.00     0.00     8.91     0  00:00        0.00
  cso_20               OUTFALL      0.00     0.00     8.30     0  00:00        0.00
  cso_2a               OUTFALL      0.00     0.00     8.30     0  00:00        0.00
  cso_21a              OUTFALL      0.00     0.00     8.93     0  00:00        0.00
  cso_10               OUTFALL      0.00     0.00     8.31     0  00:00        0.00
  Wastewater_Treatment_Plant OUTFALL      0.00     0.00     9.11     0  00:00        0.00
  cso_21b              OUTFALL      0.00     0.00     9.12     0  00:00        0.00
  cso_2b               OUTFALL      0.00     0.00     9.12     0  00:00        0.00
  j_1                  STORAGE      0.21     1.96    11.03     4  22:05        1.86
  j_21                 STORAGE      0.25     2.28    12.29     5  01:20        2.27
  j_10                 STORAGE      0.78     1.83    10.24     5  09:00        1.83
  j_2                  STORAGE      0.57     2.70    10.49     4  23:15        2.70
  j_20                 STORAGE      1.23     2.08    10.97     5  01:20        2.05
  
  
  *******************
  Node Inflow Summary
  *******************
  
  -------------------------------------------------------------------------------------------------
                                  Maximum  Maximum                  Lateral       Total        Flow
                                  Lateral    Total  Time of Max      Inflow      Inflow     Balance
                                   Inflow   Inflow   Occurrence      Volume      Volume       Error
  Node                 Type           CMS      CMS  days hr:min    10^6 ltr    10^6 ltr     Percent
  -------------------------------------------------------------------------------------------------
  cso_1                OUTFALL      0.000    1.068     4  22:05           0       0.706       0.000
  cso_20               OUTFALL      0.000    0.938     5  01:20           0        5.46       0.000
  cso_2a               OUTFALL      0.000    2.968     4  23:15           0        10.7       0.000
  cso_21a              OUTFALL      0.000    0.596     5  01:20           0       0.488       0.000
  cso_10               OUTFALL      0.000    0.000     0  00:00           0           0       0.000 ltr
  Wastewater_Treatment_Plant OUTFALL      0.000  324.078     4  23:00           0        62.4       0.000
  cso_21b              OUTFALL      0.000   45.116     4  20:45           0         5.3       0.000
  cso_2b               OUTFALL      0.000  416.928     5  00:45           0        64.2       0.000
  j_1                  STORAGE      2.987   70.505     1  22:30        31.6        64.9       2.138
  j_21                 STORAGE      0.666    0.666     5  01:15        6.75        6.75       0.771
  j_10                 STORAGE      2.596    2.596     3  22:15        24.6        24.6       0.879
  j_2                  STORAGE      8.066    8.123     5  01:15        75.4        80.8      -8.844
  j_20                 STORAGE      1.000    1.000     5  01:16        11.8        11.8       0.632
  
  
  **********************
  Node Surcharge Summary
  **********************
  
  No nodes were surcharged.
  
  
  *********************
  Node Flooding Summary
  *********************
  
  No nodes were flooded.
  
  
  **********************
  Storage Volume Summary
  **********************
  
  ------------------------------------------------------------------------------------------------
                         Average    Avg   Evap  Exfil     Maximum    Max    Time of Max    Maximum
                          Volume   Pcnt   Pcnt   Pcnt      Volume   Pcnt     Occurrence    Outflow
  Storage Unit           1000 m³   Full   Loss   Loss     1000 m³   Full    days hr:min        CMS
  ------------------------------------------------------------------------------------------------
  j_1                      0.216    6.1    0.0    0.0       3.140   88.1       4  22:05    324.078
  j_21                     0.091    7.0    0.0    0.0       1.181   90.3       5  01:20     45.116
  j_10                     3.357   28.8    0.0    0.0       9.936   85.2       5  09:00     69.670
  j_2                      0.637    4.0    0.0    0.0      11.783   74.5       4  23:15    417.428
  j_20                     0.981   35.8    0.0    0.0       2.178   79.5       5  01:20      6.015
  
  
  ***********************
  Outfall Loading Summary
  ***********************
  
  -----------------------------------------------------------
                         Flow       Avg       Max       Total
                         Freq      Flow      Flow      Volume
  Outfall Node           Pcnt       CMS       CMS    10^6 ltr
  -----------------------------------------------------------
  cso_1                  0.26     0.398     1.068       0.706
  cso_20                12.57     0.063     0.938       5.463
  cso_2a                 2.00     0.771     2.968      10.658
  cso_21a                0.16     0.438     0.596       0.488
  cso_10                 0.00     0.000     0.000       0.000
  Wastewater_Treatment_Plant  80.32     0.112   324.078      62.440
  cso_21b               62.61     0.012    45.116       5.301
  cso_2b                58.92     0.158   416.928      64.185
  -----------------------------------------------------------
  System                27.11     1.951   417.442     149.240
  
  
  ********************
  Link Flow Summary
  ********************
  
  -----------------------------------------------------------------------------
                                 Maximum  Time of Max   Maximum    Max/    Max/
                                  |Flow|   Occurrence   |Veloc|    Full    Full
  Link                 Type          CMS  days hr:min     m/sec    Flow   Depth
  -----------------------------------------------------------------------------
  p_20_2               PUMP        6.015     2  21:30            401.03
  WWTP_inlet           PUMP      324.078     4  23:00            277.78
  p_21_2               PUMP        0.042     5  01:15              1.00
  CSO_Pump_21          PUMP       45.116     4  20:45            1624.15
  p10_1                PUMP       69.670     1  22:30            100.32
  p_2_1                PUMP        0.500     2  21:30              1.00
  CSO_Pump_2           PUMP      416.928     5  00:45            750.47
  cso_weir_1           WEIR        1.068     4  22:05                      0.06
  cso_weir_20          WEIR        0.938     5  01:20                      0.09
  cso_weir_2           WEIR        2.968     4  23:15                      0.11
  cso_weir_21          WEIR        0.596     5  01:20                      0.06
  cso_weir_10          WEIR        0.000     0  00:00                      0.00
  
  
  ***************************
  Flow Classification Summary
  ***************************
  
  -------------------------------------------------------------------------------------
                      Adjusted    ---------- Fraction of Time in Flow Class ---------- 
                       /Actual         Up    Down  Sub   Sup   Up    Down  Norm  Inlet 
  Conduit               Length    Dry  Dry   Dry   Crit  Crit  Crit  Crit  Ltd   Ctrl  
  -------------------------------------------------------------------------------------
  
  
  *************************
  Conduit Surcharge Summary
  *************************
  
  No conduits were surcharged.
  
  
  ***************
  Pumping Summary
  ***************
  
  ---------------------------------------------------------------------------------------------------------
                                                  Min       Avg       Max     Total     Power    % Time Off
                        Percent   Number of      Flow      Flow      Flow    Volume     Usage    Pump Curve
  Pump                 Utilized   Start-Ups       CMS       CMS       CMS  10^6 ltr     Kw-hr    Low   High
  ---------------------------------------------------------------------------------------------------------
  p_20_2                  50.39          20      0.00      0.01      6.02     4.640     13.75    0.0   52.6
  WWTP_inlet              80.32          31      0.00      0.11    324.08    62.434    118.71    0.0    0.0
  p_21_2                  29.04          11      0.00      0.00      0.04     0.806      3.40    0.0    0.0
  CSO_Pump_21             62.62          48      0.00      0.01     45.12     5.301     21.72    0.0    0.0
  p10_1                   37.35          41      0.00      0.08     69.67    19.692     37.64    0.0    0.0
  p_2_1                   17.84       11427      0.00      0.11      0.50    13.588     24.22    0.0    0.0
  CSO_Pump_2              58.92       11491      0.00      0.16    416.93    64.168    128.17    0.0    0.0
  

  Analysis begun on:  Mon Jun 17 20:11:37 2024
  Analysis ended on:  Mon Jun 17 20:11:55 2024
  Total elapsed time: 00:00:18