
  EPA STORM WATER MANAGEMENT MODEL - VERSION 5.2 (Build 5.2.4)
  PYSWMM TOOLKIT API - VERSION v1.0 (2023-11-27)
  ------------------------------------------------------------

  
  ****************
  Analysis Options
  ****************
  Flow Units ............... CMS
  Process Models:
    Rainfall/Runoff ........ YES
    RDII ................... NO
    Snowmelt ............... NO
    Groundwater ............ NO
    Flow Routing ........... YES
    Ponding Allowed ........ YES
    Water Quality .......... NO
  Infiltration Method ...... HORTON
  Flow Routing Method ...... DYNWAVE
  Surcharge Method ......... EXTRAN
  Starting Date ............ 02/20/2020 00:00:00
  Ending Date .............. 02/22/2020 00:00:00
  Antecedent Dry Days ...... 0.0
  Report Time Step ......... 00:15:00
  Wet Time Step ............ 00:00:15
  Dry Time Step ............ 01:00:00
  Routing Time Step ........ 8.00 sec
  Variable Time Step ....... YES
  Maximum Trials ........... 16
  Number of Threads ........ 2
  Head Tolerance ........... 0.000015 m
  
  
  **************************        Volume         Depth
  Runoff Quantity Continuity     hectare-m            mm
  **************************     ---------       -------
  Total Precipitation ......         1.952         6.091
  Evaporation Loss .........         0.000         0.000
  Infiltration Loss ........         0.164         0.511
  Surface Runoff ...........         1.562         4.876
  Final Storage ............         0.227         0.708
  Continuity Error (%) .....        -0.056
  
  
  **************************        Volume        Volume
  Flow Routing Continuity        hectare-m      10^6 ltr
  **************************     ---------     ---------
  Dry Weather Inflow .......         0.425         4.250
  Wet Weather Inflow .......         1.564        15.637
  Groundwater Inflow .......         0.000         0.000
  RDII Inflow ..............         0.000         0.000
  External Inflow ..........         0.000         0.000
  External Outflow .........         0.263         2.632
  Flooding Loss ............         0.000         0.000
  Evaporation Loss .........         0.000         0.000
  Exfiltration Loss ........         0.000         0.000
  Initial Stored Volume ....         0.000         0.000
  Final Stored Volume ......         1.724        17.237
  Continuity Error (%) .....         0.094
  
  
  *************************
  Highest Continuity Errors
  *************************
  Node j_1 (-1.74%)
  
  
  ***************************
  Time-Step Critical Elements
  ***************************
  None
  
  
  ********************************
  Highest Flow Instability Indexes
  ********************************
  Link p_2_1 (56)
  Link CSO_Pump_2 (56)
  Link WWTP_inlet (38)
  
  
  *********************************
  Most Frequent Nonconverging Nodes
  *********************************
  Convergence obtained at all time steps.
  
  
  *************************
  Routing Time Step Summary
  *************************
  Minimum Time Step           :     3.95 sec
  Average Time Step           :     7.96 sec
  Maximum Time Step           :     8.00 sec
  % of Time in Steady State   :     0.00
  Average Iterations per Step :     6.82
  % of Steps Not Converging   :    31.98
  Time Step Frequencies       :
      8.000 -  2.899 sec      :   100.00 %
      2.899 -  1.051 sec      :     0.00 %
      1.051 -  0.381 sec      :     0.00 %
      0.381 -  0.138 sec      :     0.00 %
      0.138 -  0.050 sec      :     0.00 %
  
  
  ***************************
  Subcatchment Runoff Summary
  ***************************
  
  ------------------------------------------------------------------------------------------------------------------------------
                            Total      Total      Total      Total     Imperv       Perv      Total       Total     Peak  Runoff
                           Precip      Runon       Evap      Infil     Runoff     Runoff     Runoff      Runoff   Runoff   Coeff
  Subcatchment                 mm         mm         mm         mm         mm         mm         mm    10^6 ltr      CMS
  ------------------------------------------------------------------------------------------------------------------------------
  sub_1a                     4.92       0.00       0.00       0.78       2.94       0.62       3.55        2.38     0.69   0.722
  sub_21a                    6.84       0.00       0.00       0.50       5.22       0.74       5.96        0.52     0.59   0.871
  sub_10a                    4.92       0.00       0.00       0.31       3.51       0.25       3.75        2.17     0.61   0.763
  sub_2a                     6.84       0.00       0.00       0.31       5.34       0.46       5.80        6.69     7.83   0.848
  sub_2b                     6.84       0.00       0.00       1.77       2.19       2.61       4.80        0.37     0.52   0.701
  sub_2c                     6.84       0.00       0.00       0.60       4.42       0.89       5.30        0.49     0.63   0.775
  sub_21b                    6.84       0.00       0.00       0.00       5.79       0.01       5.80        0.18     0.21   0.848
  sub_21c                    6.84       0.00       0.00       2.44       0.75       3.59       4.34        0.07     0.11   0.635
  sub_2d                     6.84       0.00       0.00       0.71       4.06       1.04       5.10        0.68     0.90   0.746
  sub_2e                     6.84       0.00       0.00       0.77       4.15       1.13       5.28        0.65     0.84   0.772
  sub_2f                     6.84       0.00       0.00       0.11       6.01       0.16       6.17        0.23     0.26   0.902
  sub_20a                    6.84       0.00       0.00       0.50       5.12       0.73       5.85        1.17     1.36   0.855
  
  
  ******************
  Node Depth Summary
  ******************
  
  ---------------------------------------------------------------------------------
                                 Average  Maximum  Maximum  Time of Max    Reported
                                   Depth    Depth      HGL   Occurrence   Max Depth
  Node                 Type       Meters   Meters   Meters  days hr:min      Meters
  ---------------------------------------------------------------------------------
  cso_1                OUTFALL      0.00     0.00     8.91     0  00:00        0.00
  cso_20               OUTFALL      0.00     0.00     8.30     0  00:00        0.00
  cso_2a               OUTFALL      0.00     0.00     8.30     0  00:00        0.00
  cso_21a              OUTFALL      0.00     0.00     8.93     0  00:00        0.00
  cso_10               OUTFALL      0.00     0.00     8.31     0  00:00        0.00
  Wastewater_Treatment_Plant OUTFALL      0.00     0.00     9.11     0  00:00        0.00
  cso_21b              OUTFALL      0.00     0.00     9.12     0  00:00        0.00
  cso_2b               OUTFALL      0.00     0.00     9.12     0  00:00        0.00
  j_1                  STORAGE      0.88     1.65    10.72     2  00:00        1.65
  j_21                 STORAGE      0.72     1.31    11.32     2  00:00        1.31
  j_10                 STORAGE      0.59     0.96     9.37     2  00:00        0.96
  j_2                  STORAGE      1.51     2.49    10.28     1  18:00        2.49
  j_20                 STORAGE      1.02     1.77    10.66     1  23:15        1.77
  
  
  *******************
  Node Inflow Summary
  *******************
  
  -------------------------------------------------------------------------------------------------
                                  Maximum  Maximum                  Lateral       Total        Flow
                                  Lateral    Total  Time of Max      Inflow      Inflow     Balance
                                   Inflow   Inflow   Occurrence      Volume      Volume       Error
  Node                 Type           CMS      CMS  days hr:min    10^6 ltr    10^6 ltr     Percent
  -------------------------------------------------------------------------------------------------
  cso_1                OUTFALL      0.000    0.000     0  00:00           0           0       0.000 ltr
  cso_20               OUTFALL      0.000    0.000     0  00:00           0           0       0.000 ltr
  cso_2a               OUTFALL      0.000    0.020     1  18:00           0       0.203       0.000
  cso_21a              OUTFALL      0.000    0.000     0  00:00           0           0       0.000 ltr
  cso_10               OUTFALL      0.000    0.000     0  00:00           0           0       0.000 ltr
  Wastewater_Treatment_Plant OUTFALL      0.000    0.333     0  17:50           0        1.61       0.000
  cso_21b              OUTFALL      0.000    0.007     0  17:55           0      0.0818       0.000
  cso_2b               OUTFALL      0.000    0.132     0  17:55           0       0.739       0.000
  j_1                  STORAGE      0.687    0.687     0  18:40        3.64         4.4      -1.711
  j_21                 STORAGE      0.907    0.907     0  19:05        1.07        1.07       0.108
  j_10                 STORAGE      0.608    0.608     0  18:40        2.26        2.26       0.202
  j_2                  STORAGE     10.981   10.981     0  19:05        10.9        11.4       0.760
  j_20                 STORAGE      1.361    1.361     0  19:05        2.01        2.01       0.176
  
  
  **********************
  Node Surcharge Summary
  **********************
  
  No nodes were surcharged.
  
  
  *********************
  Node Flooding Summary
  *********************
  
  No nodes were flooded.
  
  
  **********************
  Storage Volume Summary
  **********************
  
  ------------------------------------------------------------------------------------------------
                         Average    Avg   Evap  Exfil     Maximum    Max    Time of Max    Maximum
                          Volume   Pcnt   Pcnt   Pcnt      Volume   Pcnt     Occurrence    Outflow
  Storage Unit           1000 m³   Full   Loss   Loss     1000 m³   Full    days hr:min        CMS
  ------------------------------------------------------------------------------------------------
  j_1                      1.509   42.3    0.0    0.0       2.872   80.6       2  00:00      0.333
  j_21                     0.492   37.6    0.0    0.0       0.912   69.7       2  00:00      0.013
  j_10                     1.241   10.6    0.0    0.0       2.075   17.8       2  00:00      0.225
  j_2                      5.635   35.6    0.0    0.0       9.854   62.3       1  18:00      0.227
  j_20                     0.810   29.6    0.0    0.0       1.600   58.4       1  23:15      0.015
  
  
  ***********************
  Outfall Loading Summary
  ***********************
  
  -----------------------------------------------------------
                         Flow       Avg       Max       Total
                         Freq      Flow      Flow      Volume
  Outfall Node           Pcnt       CMS       CMS    10^6 ltr
  -----------------------------------------------------------
  cso_1                  0.00     0.000     0.000       0.000
  cso_20                 0.00     0.000     0.000       0.000
  cso_2a                16.65     0.007     0.020       0.203
  cso_21a                0.00     0.000     0.000       0.000
  cso_10                 0.00     0.000     0.000       0.000
  Wastewater_Treatment_Plant  37.50     0.025     0.333       1.609
  cso_21b               37.50     0.001     0.007       0.082
  cso_2b                18.82     0.023     0.132       0.739
  -----------------------------------------------------------
  System                13.81     0.056     0.472       2.632
  
  
  ********************
  Link Flow Summary
  ********************
  
  -----------------------------------------------------------------------------
                                 Maximum  Time of Max   Maximum    Max/    Max/
                                  |Flow|   Occurrence   |Veloc|    Full    Full
  Link                 Type          CMS  days hr:min     m/sec    Flow   Depth
  -----------------------------------------------------------------------------
  p_20_2               PUMP        0.015     0  17:40              1.00
  WWTP_inlet           PUMP        0.333     0  17:50              0.29
  p_21_2               PUMP        0.006     0  17:55              0.15
  CSO_Pump_21          PUMP        0.007     0  17:55              0.26
  p10_1                PUMP        0.225     0  17:50              0.32
  p_2_1                PUMP        0.095     0  17:55              0.19
  CSO_Pump_2           PUMP        0.132     0  17:55              0.24
  cso_weir_1           WEIR        0.000     0  00:00                      0.00
  cso_weir_20          WEIR        0.000     0  00:00                      0.00
  cso_weir_2           WEIR        0.020     1  18:00                      0.00
  cso_weir_21          WEIR        0.000     0  00:00                      0.00
  cso_weir_10          WEIR        0.000     0  00:00                      0.00
  
  
  ***************************
  Flow Classification Summary
  ***************************
  
  -------------------------------------------------------------------------------------
                      Adjusted    ---------- Fraction of Time in Flow Class ---------- 
                       /Actual         Up    Down  Sub   Sup   Up    Down  Norm  Inlet 
  Conduit               Length    Dry  Dry   Dry   Crit  Crit  Crit  Crit  Ltd   Ctrl  
  -------------------------------------------------------------------------------------
  
  
  *************************
  Conduit Surcharge Summary
  *************************
  
  No conduits were surcharged.
  
  
  ***************
  Pumping Summary
  ***************
  
  ---------------------------------------------------------------------------------------------------------
                                                  Min       Avg       Max     Total     Power    % Time Off
                        Percent   Number of      Flow      Flow      Flow    Volume     Usage    Pump Curve
  Pump                 Utilized   Start-Ups       CMS       CMS       CMS  10^6 ltr     Kw-hr    Low   High
  ---------------------------------------------------------------------------------------------------------
  p_20_2                  38.54           2      0.00      0.01      0.01     0.430      1.23    0.0    4.5
  WWTP_inlet              37.50           1      0.00      0.02      0.33     1.609      0.18    0.0    0.0
  p_21_2                  37.50           1      0.00      0.00      0.01     0.074      0.44    0.0    0.0
  CSO_Pump_21             37.50           1      0.00      0.00      0.01     0.082      0.20    0.0    0.0
  p10_1                   37.50           2      0.00      0.00      0.23     0.181      0.35    0.0    0.0
  p_2_1                   18.78        4061      0.00      0.02      0.09     0.587      2.06    0.0    0.0
  CSO_Pump_2              18.82        4052      0.00      0.02      0.13     0.739      2.66    0.0    0.0
  

  Analysis begun on:  Mon Jun  3 21:44:42 2024
  Analysis ended on:  Mon Jun  3 21:44:57 2024
  Total elapsed time: 00:00:15