
  EPA STORM WATER MANAGEMENT MODEL - VERSION 5.2 (Build 5.2.4)
  PYSWMM TOOLKIT API - VERSION v1.0 (2023-11-27)
  ------------------------------------------------------------

  
  ****************
  Analysis Options
  ****************
  Flow Units ............... CMS
  Process Models:
    Rainfall/Runoff ........ YES
    RDII ................... NO
    Snowmelt ............... NO
    Groundwater ............ NO
    Flow Routing ........... YES
    Ponding Allowed ........ YES
    Water Quality .......... NO
  Infiltration Method ...... HORTON
  Flow Routing Method ...... DYNWAVE
  Surcharge Method ......... EXTRAN
  Starting Date ............ 02/08/2020 00:00:00
  Ending Date .............. 02/12/2020 00:00:00
  Antecedent Dry Days ...... 0.0
  Report Time Step ......... 00:15:00
  Wet Time Step ............ 00:00:15
  Dry Time Step ............ 01:00:00
  Routing Time Step ........ 8.00 sec
  Variable Time Step ....... YES
  Maximum Trials ........... 16
  Number of Threads ........ 2
  Head Tolerance ........... 0.000015 m
  
  
  **************************        Volume         Depth
  Runoff Quantity Continuity     hectare-m            mm
  **************************     ---------       -------
  Total Precipitation ......         5.155        16.090
  Evaporation Loss .........         0.000         0.000
  Infiltration Loss ........         0.517         1.613
  Surface Runoff ...........         4.417        13.788
  Final Storage ............         0.227         0.708
  Continuity Error (%) .....        -0.122
  
  
  **************************        Volume        Volume
  Flow Routing Continuity        hectare-m      10^6 ltr
  **************************     ---------     ---------
  Dry Weather Inflow .......         0.850         8.501
  Wet Weather Inflow .......         4.413        44.130
  Groundwater Inflow .......         0.000         0.000
  RDII Inflow ..............         0.000         0.000
  External Inflow ..........         0.000         0.000
  External Outflow .........        10.597       105.970
  Flooding Loss ............         0.020         0.199
  Evaporation Loss .........         0.000         0.000
  Exfiltration Loss ........         0.000         0.000
  Initial Stored Volume ....         0.000         0.000
  Final Stored Volume ......         0.053         0.532
  Continuity Error (%) .....      -102.735
  
  
  *************************
  Highest Continuity Errors
  *************************
  Node j_2 (-151.21%)
  
  
  ***************************
  Time-Step Critical Elements
  ***************************
  None
  
  
  ********************************
  Highest Flow Instability Indexes
  ********************************
  Link CSO_Pump_2 (97)
  Link p_2_1 (79)
  Link WWTP_inlet (52)
  Link p10_1 (3)
  
  
  *********************************
  Most Frequent Nonconverging Nodes
  *********************************
  Convergence obtained at all time steps.
  
  
  *************************
  Routing Time Step Summary
  *************************
  Minimum Time Step           :     0.58 sec
  Average Time Step           :     7.96 sec
  Maximum Time Step           :     8.00 sec
  % of Time in Steady State   :     0.00
  Average Iterations per Step :    10.84
  % of Steps Not Converging   :    56.01
  Time Step Frequencies       :
      8.000 -  2.899 sec      :    99.99 %
      2.899 -  1.051 sec      :     0.01 %
      1.051 -  0.381 sec      :     0.00 %
      0.381 -  0.138 sec      :     0.00 %
      0.138 -  0.050 sec      :     0.00 %
  
  
  ***************************
  Subcatchment Runoff Summary
  ***************************
  
  ------------------------------------------------------------------------------------------------------------------------------
                            Total      Total      Total      Total     Imperv       Perv      Total       Total     Peak  Runoff
                           Precip      Runon       Evap      Infil     Runoff     Runoff     Runoff      Runoff   Runoff   Coeff
  Subcatchment                 mm         mm         mm         mm         mm         mm         mm    10^6 ltr      CMS
  ------------------------------------------------------------------------------------------------------------------------------
  sub_1a                    11.16       0.00       0.00       1.93       7.41       1.25       8.66        5.80     2.30   0.776
  sub_21a                   19.24       0.00       0.00       1.85      15.37       1.65      17.02        1.47     0.38   0.885
  sub_10a                   11.16       0.00       0.00       0.77       9.05       0.50       9.55        5.53     2.00   0.856
  sub_2a                    19.24       0.00       0.00       1.15      16.35       1.02      17.38       20.06     5.06   0.903
  sub_2b                    19.24       0.00       0.00       6.54       6.66       5.83      12.49        0.96     0.33   0.649
  sub_2c                    19.24       0.00       0.00       2.23      14.12       1.98      16.10        1.50     0.41   0.837
  sub_21b                   19.24       0.00       0.00       0.02      18.18       0.02      18.19        0.55     0.13   0.946
  sub_21c                   19.24       0.00       0.00       9.00       2.22       8.03      10.25        0.17     0.07   0.533
  sub_2d                    19.24       0.00       0.00       2.60      13.31       2.32      15.63        2.09     0.58   0.812
  sub_2e                    19.24       0.00       0.00       2.84      13.09       2.53      15.63        1.94     0.54   0.812
  sub_2f                    19.24       0.00       0.00       0.40      17.93       0.35      18.28        0.70     0.17   0.950
  sub_20a                   19.24       0.00       0.00       1.84      15.29       1.64      16.93        3.40     0.88   0.880
  
  
  ******************
  Node Depth Summary
  ******************
  
  ---------------------------------------------------------------------------------
                                 Average  Maximum  Maximum  Time of Max    Reported
                                   Depth    Depth      HGL   Occurrence   Max Depth
  Node                 Type       Meters   Meters   Meters  days hr:min      Meters
  ---------------------------------------------------------------------------------
  cso_1                OUTFALL      0.00     0.00     8.91     0  00:00        0.00
  cso_20               OUTFALL      0.00     0.00     8.30     0  00:00        0.00
  cso_2a               OUTFALL      0.00     0.00     8.30     0  00:00        0.00
  cso_21a              OUTFALL      0.00     0.00     8.93     0  00:00        0.00
  cso_10               OUTFALL      0.00     0.00     8.31     0  00:00        0.00
  Wastewater_Treatment_Plant OUTFALL      0.00     0.00     9.11     0  00:00        0.00
  cso_21b              OUTFALL      0.00     0.00     9.12     0  00:00        0.00
  cso_2b               OUTFALL      0.00     0.00     9.12     0  00:00        0.00
  j_1                  STORAGE      0.15     1.24    10.31     1  21:30        1.24
  j_21                 STORAGE      0.33     1.06    11.07     2  06:45        1.06
  j_10                 STORAGE      0.32     0.98     9.39     1  21:30        0.98
  j_2                  STORAGE      0.46     8.33    16.12     1  18:30        2.21
  j_20                 STORAGE      0.69     2.00    10.89     2  21:55        1.98
  
  
  *******************
  Node Inflow Summary
  *******************
  
  -------------------------------------------------------------------------------------------------
                                  Maximum  Maximum                  Lateral       Total        Flow
                                  Lateral    Total  Time of Max      Inflow      Inflow     Balance
                                   Inflow   Inflow   Occurrence      Volume      Volume       Error
  Node                 Type           CMS      CMS  days hr:min    10^6 ltr    10^6 ltr     Percent
  -------------------------------------------------------------------------------------------------
  cso_1                OUTFALL      0.000    0.000     0  00:00           0           0       0.000 ltr
  cso_20               OUTFALL      0.000    0.374     2  21:55           0       0.485       0.000
  cso_2a               OUTFALL      0.000  154.329     3  13:15           0        6.69       0.000
  cso_21a              OUTFALL      0.000    0.000     0  00:00           0           0       0.000 ltr
  cso_10               OUTFALL      0.000    0.000     0  00:00           0           0       0.000 ltr
  Wastewater_Treatment_Plant OUTFALL      0.000   18.416     2  04:30           0        21.6       0.000
  cso_21b              OUTFALL      0.000    0.028     1  16:34           0         1.7       0.000
  cso_2b               OUTFALL      0.000  105.755     1  19:30           0        75.5       0.000
  j_1                  STORAGE      2.298    2.570     1  21:20        8.31        21.5      -0.430
  j_21                 STORAGE      0.585    0.585     2  21:30         2.8         2.8       0.427
  j_10                 STORAGE      1.999    1.999     1  21:20         5.7         5.7       0.664
  j_2                  STORAGE      7.093   32.201     3  13:15        30.8        35.8     -60.192
  j_20                 STORAGE      0.880    0.880     2  21:30        5.06        5.06       3.434
  
  
  **********************
  Node Surcharge Summary
  **********************
  
  No nodes were surcharged.
  
  
  *********************
  Node Flooding Summary
  *********************
  
  Flooding refers to all water that overflows a node, whether it ponds or not.
  --------------------------------------------------------------------------
                                                             Total   Maximum
                                 Maximum   Time of Max       Flood    Ponded
                        Hours       Rate    Occurrence      Volume     Depth
  Node                 Flooded       CMS   days hr:min    10^6 ltr    Meters
  --------------------------------------------------------------------------
  j_2                     0.01    13.146      3  13:15       0.199     0.000
  
  
  **********************
  Storage Volume Summary
  **********************
  
  ------------------------------------------------------------------------------------------------
                         Average    Avg   Evap  Exfil     Maximum    Max    Time of Max    Maximum
                          Volume   Pcnt   Pcnt   Pcnt      Volume   Pcnt     Occurrence    Outflow
  Storage Unit           1000 m³   Full   Loss   Loss     1000 m³   Full    days hr:min        CMS
  ------------------------------------------------------------------------------------------------
  j_1                      0.143    4.0    0.0    0.0       2.042   57.3       1  21:30     18.416
  j_21                     0.155   11.9    0.0    0.0       0.724   55.3       2  06:45      0.255
  j_10                     0.434    3.7    0.0    0.0       2.194   18.8       1  21:30      0.272
  j_2                      0.653    4.1    0.0    0.0      15.814  100.0       1  18:30    202.510
  j_20                     0.523   19.1    0.0    0.0       2.060   75.2       2  21:55     32.185
  
  
  ***********************
  Outfall Loading Summary
  ***********************
  
  -----------------------------------------------------------
                         Flow       Avg       Max       Total
                         Freq      Flow      Flow      Volume
  Outfall Node           Pcnt       CMS       CMS    10^6 ltr
  -----------------------------------------------------------
  cso_1                  0.00     0.000     0.000       0.000
  cso_20                 1.31     0.107     0.374       0.485
  cso_2a                 0.17    12.767   154.329       6.694
  cso_21a                0.00     0.000     0.000       0.000
  cso_10                 0.00     0.000     0.000       0.000
  Wastewater_Treatment_Plant  94.49     0.066    18.416      21.633
  cso_21b               63.53     0.008     0.028       1.696
  cso_2b                52.55     0.419   105.755      75.462
  -----------------------------------------------------------
  System                26.51    13.367   202.101     105.969
  
  
  ********************
  Link Flow Summary
  ********************
  
  -----------------------------------------------------------------------------
                                 Maximum  Time of Max   Maximum    Max/    Max/
                                  |Flow|   Occurrence   |Veloc|    Full    Full
  Link                 Type          CMS  days hr:min     m/sec    Flow   Depth
  -----------------------------------------------------------------------------
  p_20_2               PUMP       32.185     3  13:15            2145.64
  WWTP_inlet           PUMP       18.416     2  04:30             15.79
  p_21_2               PUMP        0.227     2  21:00              5.45
  CSO_Pump_21          PUMP        0.028     1  16:34              1.00
  p10_1                PUMP        0.272     1  17:38              0.39
  p_2_1                PUMP        0.500     1  18:30              1.00
  CSO_Pump_2           PUMP      105.755     1  19:30            190.36
  cso_weir_1           WEIR        0.000     0  00:00                      0.00
  cso_weir_20          WEIR        0.374     2  21:55                      0.05
  cso_weir_2           WEIR      154.329     3  13:15                      1.00
  cso_weir_21          WEIR        0.000     0  00:00                      0.00
  cso_weir_10          WEIR        0.000     0  00:00                      0.00
  
  
  ***************************
  Flow Classification Summary
  ***************************
  
  -------------------------------------------------------------------------------------
                      Adjusted    ---------- Fraction of Time in Flow Class ---------- 
                       /Actual         Up    Down  Sub   Sup   Up    Down  Norm  Inlet 
  Conduit               Length    Dry  Dry   Dry   Crit  Crit  Crit  Crit  Ltd   Ctrl  
  -------------------------------------------------------------------------------------
  
  
  *************************
  Conduit Surcharge Summary
  *************************
  
  No conduits were surcharged.
  
  
  ***************
  Pumping Summary
  ***************
  
  ---------------------------------------------------------------------------------------------------------
                                                  Min       Avg       Max     Total     Power    % Time Off
                        Percent   Number of      Flow      Flow      Flow    Volume     Usage    Pump Curve
  Pump                 Utilized   Start-Ups       CMS       CMS       CMS  10^6 ltr     Kw-hr    Low   High
  ---------------------------------------------------------------------------------------------------------
  p_20_2                  69.53          10      0.00      0.02     32.18     4.432     22.97    0.0   21.2
  WWTP_inlet              94.50          20      0.00      0.07     18.42    21.629     19.59    0.0    0.0
  p_21_2                  51.51           8      0.00      0.00      0.23     0.682      2.83    0.0    0.0
  CSO_Pump_21             63.54          14      0.00      0.01      0.03     1.696      6.61    0.0    0.0
  p10_1                   55.45          24      0.00      0.03      0.27     5.667      5.80    0.0    0.0
  p_2_1                   30.95       11314      0.00      0.07      0.50     7.560     17.82    0.0    0.0
  CSO_Pump_2              52.55       11326      0.00      0.42    105.76    75.090    187.23    0.0    0.0
  

  Analysis begun on:  Mon Jun 17 20:11:55 2024
  Analysis ended on:  Mon Jun 17 20:12:01 2024
  Total elapsed time: 00:00:06