
  EPA STORM WATER MANAGEMENT MODEL - VERSION 5.2 (Build 5.2.4)
  PYSWMM TOOLKIT API - VERSION v1.0 (2023-11-27)
  ------------------------------------------------------------

  
  ****************
  Analysis Options
  ****************
  Flow Units ............... CMS
  Process Models:
    Rainfall/Runoff ........ YES
    RDII ................... NO
    Snowmelt ............... NO
    Groundwater ............ NO
    Flow Routing ........... YES
    Ponding Allowed ........ YES
    Water Quality .......... NO
  Infiltration Method ...... HORTON
  Flow Routing Method ...... DYNWAVE
  Surcharge Method ......... EXTRAN
  Starting Date ............ 02/08/2020 00:00:00
  Ending Date .............. 02/12/2020 00:00:00
  Antecedent Dry Days ...... 0.0
  Report Time Step ......... 00:15:00
  Wet Time Step ............ 00:00:15
  Dry Time Step ............ 01:00:00
  Routing Time Step ........ 8.00 sec
  Variable Time Step ....... YES
  Maximum Trials ........... 16
  Number of Threads ........ 2
  Head Tolerance ........... 0.000015 m
  
  
  **************************        Volume         Depth
  Runoff Quantity Continuity     hectare-m            mm
  **************************     ---------       -------
  Total Precipitation ......         5.155        16.090
  Evaporation Loss .........         0.000         0.000
  Infiltration Loss ........         0.517         1.613
  Surface Runoff ...........         4.417        13.788
  Final Storage ............         0.227         0.708
  Continuity Error (%) .....        -0.122
  
  
  **************************        Volume        Volume
  Flow Routing Continuity        hectare-m      10^6 ltr
  **************************     ---------     ---------
  Dry Weather Inflow .......         0.850         8.501
  Wet Weather Inflow .......         4.416        44.160
  Groundwater Inflow .......         0.000         0.000
  RDII Inflow ..............         0.000         0.000
  External Inflow ..........         0.000         0.000
  External Outflow .........         4.449        44.487
  Flooding Loss ............         0.000         0.000
  Evaporation Loss .........         0.000         0.000
  Exfiltration Loss ........         0.000         0.000
  Initial Stored Volume ....         0.000         0.000
  Final Stored Volume ......         0.692         6.920
  Continuity Error (%) .....         2.380
  
  
  *************************
  Highest Continuity Errors
  *************************
  Node j_2 (1.69%)
  Node j_1 (1.36%)
  
  
  ***************************
  Time-Step Critical Elements
  ***************************
  None
  
  
  ********************************
  Highest Flow Instability Indexes
  ********************************
  Link WWTP_inlet (25)
  Link p_2_1 (16)
  
  
  *********************************
  Most Frequent Nonconverging Nodes
  *********************************
  Convergence obtained at all time steps.
  
  
  *************************
  Routing Time Step Summary
  *************************
  Minimum Time Step           :     7.95 sec
  Average Time Step           :     8.00 sec
  Maximum Time Step           :     8.00 sec
  % of Time in Steady State   :     0.00
  Average Iterations per Step :     6.81
  % of Steps Not Converging   :     2.16
  Time Step Frequencies       :
      8.000 -  2.899 sec      :   100.00 %
      2.899 -  1.051 sec      :     0.00 %
      1.051 -  0.381 sec      :     0.00 %
      0.381 -  0.138 sec      :     0.00 %
      0.138 -  0.050 sec      :     0.00 %
  
  
  ***************************
  Subcatchment Runoff Summary
  ***************************
  
  ------------------------------------------------------------------------------------------------------------------------------
                            Total      Total      Total      Total     Imperv       Perv      Total       Total     Peak  Runoff
                           Precip      Runon       Evap      Infil     Runoff     Runoff     Runoff      Runoff   Runoff   Coeff
  Subcatchment                 mm         mm         mm         mm         mm         mm         mm    10^6 ltr      CMS
  ------------------------------------------------------------------------------------------------------------------------------
  sub_1a                    11.16       0.00       0.00       1.93       7.41       1.25       8.66        5.80     2.30   0.776
  sub_21a                   19.24       0.00       0.00       1.85      15.37       1.65      17.02        1.47     0.38   0.885
  sub_10a                   11.16       0.00       0.00       0.77       9.05       0.50       9.55        5.53     2.00   0.856
  sub_2a                    19.24       0.00       0.00       1.15      16.35       1.02      17.38       20.06     5.06   0.903
  sub_2b                    19.24       0.00       0.00       6.54       6.66       5.83      12.49        0.96     0.33   0.649
  sub_2c                    19.24       0.00       0.00       2.23      14.12       1.98      16.10        1.50     0.41   0.837
  sub_21b                   19.24       0.00       0.00       0.02      18.18       0.02      18.19        0.55     0.13   0.946
  sub_21c                   19.24       0.00       0.00       9.00       2.22       8.03      10.25        0.17     0.07   0.533
  sub_2d                    19.24       0.00       0.00       2.60      13.31       2.32      15.63        2.09     0.58   0.812
  sub_2e                    19.24       0.00       0.00       2.84      13.09       2.53      15.63        1.94     0.54   0.812
  sub_2f                    19.24       0.00       0.00       0.40      17.93       0.35      18.28        0.70     0.17   0.950
  sub_20a                   19.24       0.00       0.00       1.84      15.29       1.64      16.93        3.40     0.88   0.880
  
  
  ******************
  Node Depth Summary
  ******************
  
  ---------------------------------------------------------------------------------
                                 Average  Maximum  Maximum  Time of Max    Reported
                                   Depth    Depth      HGL   Occurrence   Max Depth
  Node                 Type       Meters   Meters   Meters  days hr:min      Meters
  ---------------------------------------------------------------------------------
  cso_1                OUTFALL      0.00     0.00     8.91     0  00:00        0.00
  cso_20               OUTFALL      0.00     0.00     8.30     0  00:00        0.00
  cso_2a               OUTFALL      0.00     0.00     8.30     0  00:00        0.00
  cso_21a              OUTFALL      0.00     0.00     8.93     0  00:00        0.00
  cso_10               OUTFALL      0.00     0.00     8.31     0  00:00        0.00
  Wastewater_Treatment_Plant OUTFALL      0.00     0.00     9.11     0  00:00        0.00
  cso_21b              OUTFALL      0.00     0.00     9.12     0  00:00        0.00
  cso_2b               OUTFALL      0.00     0.00     9.12     0  00:00        0.00
  j_1                  STORAGE      0.26     1.51    10.58     1  21:25        1.48
  j_21                 STORAGE      0.25     0.90    10.91     2  22:05        0.89
  j_10                 STORAGE      0.74     1.32     9.73     4  00:00        1.32
  j_2                  STORAGE      0.38     2.21    10.00     2  22:00        2.21
  j_20                 STORAGE      0.96     1.81    10.70     2  22:10        1.81
  
  
  *******************
  Node Inflow Summary
  *******************
  
  -------------------------------------------------------------------------------------------------
                                  Maximum  Maximum                  Lateral       Total        Flow
                                  Lateral    Total  Time of Max      Inflow      Inflow     Balance
                                   Inflow   Inflow   Occurrence      Volume      Volume       Error
  Node                 Type           CMS      CMS  days hr:min    10^6 ltr    10^6 ltr     Percent
  -------------------------------------------------------------------------------------------------
  cso_1                OUTFALL      0.000    0.000     0  00:00           0           0       0.000 ltr
  cso_20               OUTFALL      0.000    0.000     0  00:00           0           0       0.000 ltr
  cso_2a               OUTFALL      0.000    0.000     2  21:20           0    3.57e-06       0.000 ltr
  cso_21a              OUTFALL      0.000    0.000     0  00:00           0           0       0.000 ltr
  cso_10               OUTFALL      0.000    0.000     0  00:00           0           0       0.000 ltr
  Wastewater_Treatment_Plant OUTFALL      0.000    0.830     1  21:25           0        40.8       0.000
  cso_21b              OUTFALL      0.000    0.000     0  00:00           0    2.79e-09       0.000 ltr
  cso_2b               OUTFALL      0.000    0.556     2  21:47           0        3.68       0.000
  j_1                  STORAGE      2.298    2.637     1  21:15        8.32        41.4       1.381
  j_21                 STORAGE      0.585    0.585     2  21:30         2.8         2.8       0.718
  j_10                 STORAGE      1.999    1.999     1  21:20        5.71        5.71       0.191
  j_2                  STORAGE      7.093    7.133     2  21:30        30.8        37.3       1.716
  j_20                 STORAGE      0.880    0.880     2  21:30        5.06        5.06       0.599
  
  
  **********************
  Node Surcharge Summary
  **********************
  
  No nodes were surcharged.
  
  
  *********************
  Node Flooding Summary
  *********************
  
  No nodes were flooded.
  
  
  **********************
  Storage Volume Summary
  **********************
  
  ------------------------------------------------------------------------------------------------
                         Average    Avg   Evap  Exfil     Maximum    Max    Time of Max    Maximum
                          Volume   Pcnt   Pcnt   Pcnt      Volume   Pcnt     Occurrence    Outflow
  Storage Unit           1000 m³   Full   Loss   Loss     1000 m³   Full    days hr:min        CMS
  ------------------------------------------------------------------------------------------------
  j_1                      0.218    6.1    0.0    0.0       2.669   74.9       1  21:25      0.830
  j_21                     0.039    3.0    0.0    0.0       0.552   42.2       2  22:05      0.041
  j_10                     2.480   21.3    0.0    0.0       5.609   48.1       4  00:00      0.272
  j_2                      0.230    1.5    0.0    0.0       6.097   38.6       2  22:00      1.056
  j_20                     0.584   21.3    0.0    0.0       1.705   62.2       2  22:10      0.015
  
  
  ***********************
  Outfall Loading Summary
  ***********************
  
  -----------------------------------------------------------
                         Flow       Avg       Max       Total
                         Freq      Flow      Flow      Volume
  Outfall Node           Pcnt       CMS       CMS    10^6 ltr
  -----------------------------------------------------------
  cso_1                  0.00     0.000     0.000       0.000
  cso_20                 0.00     0.000     0.000       0.000
  cso_2a                 0.00     0.000     0.000       0.000
  cso_21a                0.00     0.000     0.000       0.000
  cso_10                 0.00     0.000     0.000       0.000
  Wastewater_Treatment_Plant  59.17     0.200     0.830      40.807
  cso_21b                0.00     0.000     0.000       0.000
  cso_2b                 1.92     0.554     0.556       3.680
  -----------------------------------------------------------
  System                 7.64     0.754     0.889      44.487
  
  
  ********************
  Link Flow Summary
  ********************
  
  -----------------------------------------------------------------------------
                                 Maximum  Time of Max   Maximum    Max/    Max/
                                  |Flow|   Occurrence   |Veloc|    Full    Full
  Link                 Type          CMS  days hr:min     m/sec    Flow   Depth
  -----------------------------------------------------------------------------
  p_20_2               PUMP        0.015     0  00:37              1.00
  WWTP_inlet           PUMP        0.830     1  21:25              0.71
  p_21_2               PUMP        0.041     2  22:05              0.99
  CSO_Pump_21          PUMP        0.000     0  00:00              0.00
  p10_1                PUMP        0.272     0  17:24              0.39
  p_2_1                PUMP        0.500     2  21:51              1.00
  CSO_Pump_2           PUMP        0.556     2  21:47              1.00
  cso_weir_1           WEIR        0.000     0  00:00                      0.00
  cso_weir_20          WEIR        0.000     0  00:00                      0.00
  cso_weir_2           WEIR        0.000     2  21:20                      0.00
  cso_weir_21          WEIR        0.000     0  00:00                      0.00
  cso_weir_10          WEIR        0.000     0  00:00                      0.00
  
  
  ***************************
  Flow Classification Summary
  ***************************
  
  -------------------------------------------------------------------------------------
                      Adjusted    ---------- Fraction of Time in Flow Class ---------- 
                       /Actual         Up    Down  Sub   Sup   Up    Down  Norm  Inlet 
  Conduit               Length    Dry  Dry   Dry   Crit  Crit  Crit  Crit  Ltd   Ctrl  
  -------------------------------------------------------------------------------------
  
  
  *************************
  Conduit Surcharge Summary
  *************************
  
  No conduits were surcharged.
  
  
  ***************
  Pumping Summary
  ***************
  
  ---------------------------------------------------------------------------------------------------------
                                                  Min       Avg       Max     Total     Power    % Time Off
                        Percent   Number of      Flow      Flow      Flow    Volume     Usage    Pump Curve
  Pump                 Utilized   Start-Ups       CMS       CMS       CMS  10^6 ltr     Kw-hr    Low   High
  ---------------------------------------------------------------------------------------------------------
  p_20_2                  71.90         157      0.00      0.01      0.01     3.727     19.10    0.0  100.0
  WWTP_inlet              59.17        1720      0.00      0.20      0.83    40.807     59.87    0.0    0.0
  p_21_2                  31.01          41      0.00      0.03      0.04     2.777     12.49    0.0    0.0
  CSO_Pump_21              0.00           0      0.00      0.00      0.00     0.000      0.00    0.0    0.0
  p10_1                    0.09           2      0.00      0.27      0.27     0.086      0.17    0.0    0.0
  p_2_1                   30.71        4336      0.00      0.31      0.50    32.969     60.81    0.0    0.0
  CSO_Pump_2               1.92           2      0.00      0.55      0.56     3.680      6.41    0.0    0.0
  

  Analysis begun on:  Mon Jun 10 11:33:44 2024
  Analysis ended on:  Mon Jun 10 11:34:30 2024
  Total elapsed time: 00:00:46