
  EPA STORM WATER MANAGEMENT MODEL - VERSION 5.2 (Build 5.2.4)
  PYSWMM TOOLKIT API - VERSION v1.0 (2023-11-27)
  ------------------------------------------------------------

  
  ****************
  Analysis Options
  ****************
  Flow Units ............... CMS
  Process Models:
    Rainfall/Runoff ........ YES
    RDII ................... NO
    Snowmelt ............... NO
    Groundwater ............ NO
    Flow Routing ........... YES
    Ponding Allowed ........ YES
    Water Quality .......... NO
  Infiltration Method ...... HORTON
  Flow Routing Method ...... DYNWAVE
  Surcharge Method ......... EXTRAN
  Starting Date ............ 06/11/2020 00:00:00
  Ending Date .............. 06/16/2020 00:00:00
  Antecedent Dry Days ...... 0.0
  Report Time Step ......... 00:15:00
  Wet Time Step ............ 00:00:15
  Dry Time Step ............ 01:00:00
  Routing Time Step ........ 8.00 sec
  Variable Time Step ....... YES
  Maximum Trials ........... 16
  Number of Threads ........ 2
  Head Tolerance ........... 0.000015 m
  
  
  **************************        Volume         Depth
  Runoff Quantity Continuity     hectare-m            mm
  **************************     ---------       -------
  Total Precipitation ......         5.491        17.140
  Evaporation Loss .........         0.000         0.000
  Infiltration Loss ........         0.175         0.548
  Surface Runoff ...........         5.069        15.822
  Final Storage ............         0.257         0.801
  Continuity Error (%) .....        -0.175
  
  
  **************************        Volume        Volume
  Flow Routing Continuity        hectare-m      10^6 ltr
  **************************     ---------     ---------
  Dry Weather Inflow .......         0.426         4.259
  Wet Weather Inflow .......         5.063        50.629
  Groundwater Inflow .......         0.000         0.000
  RDII Inflow ..............         0.000         0.000
  External Inflow ..........         0.000         0.000
  External Outflow .........         3.482        34.818
  Flooding Loss ............         0.000         0.000
  Evaporation Loss .........         0.000         0.000
  Exfiltration Loss ........         0.000         0.000
  Initial Stored Volume ....         0.000         0.000
  Final Stored Volume ......         2.040        20.399
  Continuity Error (%) .....        -0.598
  
  
  *************************
  Highest Continuity Errors
  *************************
  Node j_1 (-1.15%)
  
  
  ***************************
  Time-Step Critical Elements
  ***************************
  None
  
  
  ********************************
  Highest Flow Instability Indexes
  ********************************
  Link CSO_Pump_2 (131)
  Link p_2_1 (123)
  Link WWTP_inlet (78)
  Link p10_1 (2)
  
  
  *********************************
  Most Frequent Nonconverging Nodes
  *********************************
  Convergence obtained at all time steps.
  
  
  *************************
  Routing Time Step Summary
  *************************
  Minimum Time Step           :     3.95 sec
  Average Time Step           :     7.96 sec
  Maximum Time Step           :     8.00 sec
  % of Time in Steady State   :     0.00
  Average Iterations per Step :    13.28
  % of Steps Not Converging   :    73.21
  Time Step Frequencies       :
      8.000 -  2.899 sec      :   100.00 %
      2.899 -  1.051 sec      :     0.00 %
      1.051 -  0.381 sec      :     0.00 %
      0.381 -  0.138 sec      :     0.00 %
      0.138 -  0.050 sec      :     0.00 %
  
  
  ***************************
  Subcatchment Runoff Summary
  ***************************
  
  ------------------------------------------------------------------------------------------------------------------------------
                            Total      Total      Total      Total     Imperv       Perv      Total       Total     Peak  Runoff
                           Precip      Runon       Evap      Infil     Runoff     Runoff     Runoff      Runoff   Runoff   Coeff
  Subcatchment                 mm         mm         mm         mm         mm         mm         mm    10^6 ltr      CMS
  ------------------------------------------------------------------------------------------------------------------------------
  sub_1a                    12.21       0.00       0.00       0.60       8.17       2.73      10.90        7.30     5.02   0.893
  sub_21a                   20.29       0.00       0.00       0.65      16.24       2.95      19.19        1.66     0.34   0.946
  sub_10a                   12.21       0.00       0.00       0.24       9.98       1.09      11.07        6.41     4.36   0.907
  sub_2a                    20.29       0.00       0.00       0.40      17.29       1.83      19.12       22.08     4.56   0.942
  sub_2b                    20.29       0.00       0.00       2.31       7.05      10.42      17.47        1.34     0.30   0.861
  sub_2c                    20.29       0.00       0.00       0.79      14.98       3.55      18.52        1.72     0.37   0.913
  sub_21b                   20.29       0.00       0.00       0.01      19.27       0.03      19.30        0.59     0.12   0.951
  sub_21c                   20.29       0.00       0.00       3.18       2.35      14.35      16.70        0.28     0.06   0.823
  sub_2d                    20.29       0.00       0.00       0.92      14.13       4.14      18.28        2.45     0.53   0.901
  sub_2e                    20.29       0.00       0.00       1.00      13.88       4.53      18.42        2.28     0.49   0.908
  sub_2f                    20.29       0.00       0.00       0.14      18.97       0.63      19.60        0.75     0.15   0.966
  sub_20a                   20.29       0.00       0.00       0.65      16.16       2.93      19.09        3.83     0.79   0.941
  
  
  ******************
  Node Depth Summary
  ******************
  
  ---------------------------------------------------------------------------------
                                 Average  Maximum  Maximum  Time of Max    Reported
                                   Depth    Depth      HGL   Occurrence   Max Depth
  Node                 Type       Meters   Meters   Meters  days hr:min      Meters
  ---------------------------------------------------------------------------------
  cso_1                OUTFALL      0.00     0.00     8.91     0  00:00        0.00
  cso_20               OUTFALL      0.00     0.00     8.30     0  00:00        0.00
  cso_2a               OUTFALL      0.00     0.00     8.30     0  00:00        0.00
  cso_21a              OUTFALL      0.00     0.00     8.93     0  00:00        0.00
  cso_10               OUTFALL      0.00     0.00     8.31     0  00:00        0.00
  Wastewater_Treatment_Plant OUTFALL      0.00     0.00     9.11     0  00:00        0.00
  cso_21b              OUTFALL      0.00     0.00     9.12     0  00:00        0.00
  cso_2b               OUTFALL      0.00     0.00     9.12     0  00:00        0.00
  j_1                  STORAGE      0.06     2.02    11.09     1  23:30        2.02
  j_21                 STORAGE      0.13     2.25    12.26     1  23:15        2.25
  j_10                 STORAGE      0.06     1.26     9.67     2  00:05        1.25
  j_2                  STORAGE      0.24     2.77    10.56     1  23:15        2.77
  j_20                 STORAGE      0.26     2.04    10.93     1  23:15        2.04
  
  
  *******************
  Node Inflow Summary
  *******************
  
  -------------------------------------------------------------------------------------------------
                                  Maximum  Maximum                  Lateral       Total        Flow
                                  Lateral    Total  Time of Max      Inflow      Inflow     Balance
                                   Inflow   Inflow   Occurrence      Volume      Volume       Error
  Node                 Type           CMS      CMS  days hr:min    10^6 ltr    10^6 ltr     Percent
  -------------------------------------------------------------------------------------------------
  cso_1                OUTFALL      0.000    1.938     1  23:30           0       0.945       0.000
  cso_20               OUTFALL      0.000    0.656     1  23:15           0        1.95       0.000
  cso_2a               OUTFALL      0.000    4.605     1  23:15           0        10.7       0.000
  cso_21a              OUTFALL      0.000    0.397     1  23:15           0       0.413       0.000
  cso_10               OUTFALL      0.000    0.000     0  00:00           0           0       0.000 ltr
  Wastewater_Treatment_Plant OUTFALL      0.000    1.167     1  23:27           0         8.2       0.000
  cso_21b              OUTFALL      0.000    0.028     1  15:51           0       0.765       0.000
  cso_2b               OUTFALL      0.000    0.556     1  20:07           0        11.9       0.000
  j_1                  STORAGE      5.020    5.020     1  22:35        8.56        11.4      -1.137
  j_21                 STORAGE      0.527    0.527     1  21:10        2.83        2.83       0.274
  j_10                 STORAGE      4.364    4.364     1  22:35         6.5         6.5       0.632
  j_2                  STORAGE      6.391    6.433     1  21:10        32.3        33.6      -0.747
  j_20                 STORAGE      0.793    0.793     1  21:10        4.66        4.66       0.166
  
  
  **********************
  Node Surcharge Summary
  **********************
  
  No nodes were surcharged.
  
  
  *********************
  Node Flooding Summary
  *********************
  
  No nodes were flooded.
  
  
  **********************
  Storage Volume Summary
  **********************
  
  ------------------------------------------------------------------------------------------------
                         Average    Avg   Evap  Exfil     Maximum    Max    Time of Max    Maximum
                          Volume   Pcnt   Pcnt   Pcnt      Volume   Pcnt     Occurrence    Outflow
  Storage Unit           1000 m³   Full   Loss   Loss     1000 m³   Full    days hr:min        CMS
  ------------------------------------------------------------------------------------------------
  j_1                      0.097    2.7    0.0    0.0       3.176   89.1       1  23:30      3.105
  j_21                     0.070    5.4    0.0    0.0       1.177   90.0       1  23:15      0.460
  j_10                     0.128    1.1    0.0    0.0       4.968   42.6       2  00:05      0.273
  j_2                      0.782    4.9    0.0    0.0      12.230   77.3       1  23:15      5.161
  j_20                     0.175    6.4    0.0    0.0       2.126   77.6       1  23:15      0.656
  
  
  ***********************
  Outfall Loading Summary
  ***********************
  
  -----------------------------------------------------------
                         Flow       Avg       Max       Total
                         Freq      Flow      Flow      Volume
  Outfall Node           Pcnt       CMS       CMS    10^6 ltr
  -----------------------------------------------------------
  cso_1                  0.68     0.808     1.938       0.945
  cso_20                 4.47     0.250     0.656       1.953
  cso_2a                 4.26     1.434     4.605      10.668
  cso_21a                1.46     0.162     0.397       0.413
  cso_10                 0.00     0.000     0.000       0.000
  Wastewater_Treatment_Plant  99.98     0.047     1.167       8.197
  cso_21b              100.00     0.004     0.028       0.765
  cso_2b                59.03     0.115     0.556      11.876
  -----------------------------------------------------------
  System                33.74     2.821     6.636      34.818
  
  
  ********************
  Link Flow Summary
  ********************
  
  -----------------------------------------------------------------------------
                                 Maximum  Time of Max   Maximum    Max/    Max/
                                  |Flow|   Occurrence   |Veloc|    Full    Full
  Link                 Type          CMS  days hr:min     m/sec    Flow   Depth
  -----------------------------------------------------------------------------
  p_20_2               PUMP        0.015     1  15:50              1.00
  WWTP_inlet           PUMP        1.167     1  23:27              1.00
  p_21_2               PUMP        0.042     1  21:07              1.00
  CSO_Pump_21          PUMP        0.028     1  15:51              1.00
  p10_1                PUMP        0.273     2  00:05              0.39
  p_2_1                PUMP        0.380     1  16:00              0.76
  CSO_Pump_2           PUMP        0.556     1  20:07              1.00
  cso_weir_1           WEIR        1.938     1  23:30                      0.10
  cso_weir_20          WEIR        0.656     1  23:15                      0.07
  cso_weir_2           WEIR        4.605     1  23:15                      0.15
  cso_weir_21          WEIR        0.397     1  23:15                      0.04
  cso_weir_10          WEIR        0.000     0  00:00                      0.00
  
  
  ***************************
  Flow Classification Summary
  ***************************
  
  -------------------------------------------------------------------------------------
                      Adjusted    ---------- Fraction of Time in Flow Class ---------- 
                       /Actual         Up    Down  Sub   Sup   Up    Down  Norm  Inlet 
  Conduit               Length    Dry  Dry   Dry   Crit  Crit  Crit  Crit  Ltd   Ctrl  
  -------------------------------------------------------------------------------------
  
  
  *************************
  Conduit Surcharge Summary
  *************************
  
  No conduits were surcharged.
  
  
  ***************
  Pumping Summary
  ***************
  
  ---------------------------------------------------------------------------------------------------------
                                                  Min       Avg       Max     Total     Power    % Time Off
                        Percent   Number of      Flow      Flow      Flow    Volume     Usage    Pump Curve
  Pump                 Utilized   Start-Ups       CMS       CMS       CMS  10^6 ltr     Kw-hr    Low   High
  ---------------------------------------------------------------------------------------------------------
  p_20_2                  82.47           1      0.00      0.01      0.01     0.739      2.19    0.0    0.4
  WWTP_inlet              99.99           4      0.00      0.05      1.17     8.200     22.24    0.0    0.0
  p_21_2                  88.14           6      0.00      0.00      0.04     0.545      2.06    0.0    0.0
  CSO_Pump_21            100.00           1      0.00      0.00      0.03     0.766      3.55    0.0    0.0
  p10_1                   88.65           8      0.00      0.01      0.27     1.654      4.47    0.0    0.0
  p_2_1                   41.41        9002      0.00      0.02      0.38     1.224      3.73    0.0    0.0
  CSO_Pump_2              59.03        8980      0.00      0.12      0.56    11.878     32.53    0.0    0.0
  

  Analysis begun on:  Wed Jun  5 17:48:43 2024
  Analysis ended on:  Wed Jun  5 17:48:48 2024
  Total elapsed time: 00:00:05