
  EPA STORM WATER MANAGEMENT MODEL - VERSION 5.2 (Build 5.2.4)
  PYSWMM TOOLKIT API - VERSION v1.0 (2023-11-27)
  ------------------------------------------------------------

  
  ****************
  Analysis Options
  ****************
  Flow Units ............... CMS
  Process Models:
    Rainfall/Runoff ........ YES
    RDII ................... NO
    Snowmelt ............... NO
    Groundwater ............ NO
    Flow Routing ........... YES
    Ponding Allowed ........ YES
    Water Quality .......... NO
  Infiltration Method ...... HORTON
  Flow Routing Method ...... DYNWAVE
  Surcharge Method ......... EXTRAN
  Starting Date ............ 06/11/2020 00:00:00
  Ending Date .............. 06/16/2020 00:00:00
  Antecedent Dry Days ...... 0.0
  Report Time Step ......... 00:15:00
  Wet Time Step ............ 00:00:15
  Dry Time Step ............ 01:00:00
  Routing Time Step ........ 8.00 sec
  Variable Time Step ....... YES
  Maximum Trials ........... 16
  Number of Threads ........ 2
  Head Tolerance ........... 0.000015 m
  
  
  **************************        Volume         Depth
  Runoff Quantity Continuity     hectare-m            mm
  **************************     ---------       -------
  Total Precipitation ......        10.001        31.216
  Evaporation Loss .........         0.000         0.000
  Infiltration Loss ........         0.499         1.557
  Surface Runoff ...........         9.283        28.973
  Final Storage ............         0.233         0.726
  Continuity Error (%) .....        -0.126
  
  
  **************************        Volume        Volume
  Flow Routing Continuity        hectare-m      10^6 ltr
  **************************     ---------     ---------
  Dry Weather Inflow .......         1.063        10.626
  Wet Weather Inflow .......         9.278        92.780
  Groundwater Inflow .......         0.000         0.000
  RDII Inflow ..............         0.000         0.000
  External Inflow ..........         0.000         0.000
  External Outflow .........         9.419        94.189
  Flooding Loss ............         0.000         0.000
  Evaporation Loss .........         0.000         0.000
  Exfiltration Loss ........         0.000         0.000
  Initial Stored Volume ....         0.000         0.000
  Final Stored Volume ......         1.074        10.736
  Continuity Error (%) .....        -1.468
  
  
  *************************
  Highest Continuity Errors
  *************************
  Node j_2 (-3.27%)
  
  
  ***************************
  Time-Step Critical Elements
  ***************************
  None
  
  
  ********************************
  Highest Flow Instability Indexes
  ********************************
  Link CSO_Pump_2 (73)
  Link p_2_1 (61)
  Link WWTP_inlet (39)
  
  
  *********************************
  Most Frequent Nonconverging Nodes
  *********************************
  Convergence obtained at all time steps.
  
  
  *************************
  Routing Time Step Summary
  *************************
  Minimum Time Step           :     3.95 sec
  Average Time Step           :     7.96 sec
  Maximum Time Step           :     8.00 sec
  % of Time in Steady State   :     0.00
  Average Iterations per Step :     8.69
  % of Steps Not Converging   :    42.70
  Time Step Frequencies       :
      8.000 -  2.899 sec      :   100.00 %
      2.899 -  1.051 sec      :     0.00 %
      1.051 -  0.381 sec      :     0.00 %
      0.381 -  0.138 sec      :     0.00 %
      0.138 -  0.050 sec      :     0.00 %
  
  
  ***************************
  Subcatchment Runoff Summary
  ***************************
  
  ------------------------------------------------------------------------------------------------------------------------------
                            Total      Total      Total      Total     Imperv       Perv      Total       Total     Peak  Runoff
                           Precip      Runon       Evap      Infil     Runoff     Runoff     Runoff      Runoff   Runoff   Coeff
  Subcatchment                 mm         mm         mm         mm         mm         mm         mm    10^6 ltr      CMS
  ------------------------------------------------------------------------------------------------------------------------------
  sub_1a                    18.94       0.00       0.00       1.73      12.99       3.67      16.65       11.16     5.02   0.879
  sub_21a                   39.06       0.00       0.00       1.85      31.62       5.23      36.84        3.19     0.37   0.943
  sub_10a                   18.94       0.00       0.00       0.69      15.94       1.46      17.41       10.08     4.36   0.919
  sub_2a                    39.06       0.00       0.00       1.15      33.96       3.24      37.20       42.94     4.97   0.952
  sub_2b                    39.06       0.00       0.00       6.54      13.80      18.47      32.27        2.48     0.32   0.826
  sub_2c                    39.06       0.00       0.00       2.23      29.66       6.29      35.94        3.34     0.40   0.920
  sub_21b                   39.06       0.00       0.00       0.02      38.01       0.05      38.06        1.16     0.13   0.974
  sub_21c                   39.06       0.00       0.00       9.01       4.58      25.43      30.01        0.51     0.07   0.768
  sub_2d                    39.06       0.00       0.00       2.60      28.13       7.34      35.47        4.75     0.57   0.908
  sub_2e                    39.06       0.00       0.00       2.84      27.43       8.03      35.46        4.39     0.53   0.908
  sub_2f                    39.06       0.00       0.00       0.40      37.00       1.12      38.13        1.45     0.16   0.976
  sub_20a                   39.06       0.00       0.00       1.84      31.56       5.19      36.74        7.38     0.86   0.941
  
  
  ******************
  Node Depth Summary
  ******************
  
  ---------------------------------------------------------------------------------
                                 Average  Maximum  Maximum  Time of Max    Reported
                                   Depth    Depth      HGL   Occurrence   Max Depth
  Node                 Type       Meters   Meters   Meters  days hr:min      Meters
  ---------------------------------------------------------------------------------
  cso_1                OUTFALL      0.00     0.00     8.91     0  00:00        0.00
  cso_20               OUTFALL      0.00     0.00     8.30     0  00:00        0.00
  cso_2a               OUTFALL      0.00     0.00     8.30     0  00:00        0.00
  cso_21a              OUTFALL      0.00     0.00     8.93     0  00:00        0.00
  cso_10               OUTFALL      0.00     0.00     8.31     0  00:00        0.00
  Wastewater_Treatment_Plant OUTFALL      0.00     0.00     9.11     0  00:00        0.00
  cso_21b              OUTFALL      0.00     0.00     9.12     0  00:00        0.00
  cso_2b               OUTFALL      0.00     0.00     9.12     0  00:00        0.00
  j_1                  STORAGE      0.14     1.95    11.02     1  23:35        1.93
  j_21                 STORAGE      0.32     2.26    12.27     1  23:15        2.26
  j_10                 STORAGE      1.07     1.90    10.31     5  00:00        1.90
  j_2                  STORAGE      0.59     2.76    10.55     1  23:15        2.76
  j_20                 STORAGE      0.93     2.06    10.95     3  09:10        2.06
  
  
  *******************
  Node Inflow Summary
  *******************
  
  -------------------------------------------------------------------------------------------------
                                  Maximum  Maximum                  Lateral       Total        Flow
                                  Lateral    Total  Time of Max      Inflow      Inflow     Balance
                                   Inflow   Inflow   Occurrence      Volume      Volume       Error
  Node                 Type           CMS      CMS  days hr:min    10^6 ltr    10^6 ltr     Percent
  -------------------------------------------------------------------------------------------------
  cso_1                OUTFALL      0.000    0.895     1  23:35           0       0.385       0.000
  cso_20               OUTFALL      0.000    0.798     3  09:10           0        5.38       0.000
  cso_2a               OUTFALL      0.000    4.340     1  23:15           0        10.8       0.000
  cso_21a              OUTFALL      0.000    0.460     1  23:15           0        1.37       0.000
  cso_10               OUTFALL      0.000    0.000     0  00:00           0           0       0.000 ltr
  Wastewater_Treatment_Plant OUTFALL      0.000    1.658     4  22:30           0        25.8       0.000
  cso_21b              OUTFALL      0.000   63.012     2  00:30           0        3.06       0.000
  cso_2b               OUTFALL      0.000   40.492     3  16:30           0        47.4       0.000
  j_1                  STORAGE      5.020    5.520     1  22:35        14.3        26.3      -0.394
  j_21                 STORAGE      0.572    0.572     2  20:55         5.6         5.6      14.273
  j_10                 STORAGE      4.364    4.364     1  22:35        10.3        10.3       0.295
  j_2                  STORAGE      6.945    6.945     2  20:55        63.7        67.9      -3.164
  j_20                 STORAGE      0.861    0.861     2  20:55        9.45        9.45       0.773
  
  
  **********************
  Node Surcharge Summary
  **********************
  
  No nodes were surcharged.
  
  
  *********************
  Node Flooding Summary
  *********************
  
  No nodes were flooded.
  
  
  **********************
  Storage Volume Summary
  **********************
  
  ------------------------------------------------------------------------------------------------
                         Average    Avg   Evap  Exfil     Maximum    Max    Time of Max    Maximum
                          Volume   Pcnt   Pcnt   Pcnt      Volume   Pcnt     Occurrence    Outflow
  Storage Unit           1000 m³   Full   Loss   Loss     1000 m³   Full    days hr:min        CMS
  ------------------------------------------------------------------------------------------------
  j_1                      0.135    3.8    0.0    0.0       3.131   87.8       1  23:35      2.062
  j_21                     0.161   12.3    0.0    0.0       1.178   90.1       1  23:15     63.012
  j_10                     5.650   48.5    0.0    0.0      10.188   87.4       5  00:00      0.008
  j_2                      1.170    7.4    0.0    0.0      12.170   77.0       1  23:15     40.492
  j_20                     0.864   31.5    0.0    0.0       2.153   78.6       3  09:10      6.231
  
  
  ***********************
  Outfall Loading Summary
  ***********************
  
  -----------------------------------------------------------
                         Flow       Avg       Max       Total
                         Freq      Flow      Flow      Volume
  Outfall Node           Pcnt       CMS       CMS    10^6 ltr
  -----------------------------------------------------------
  cso_1                  0.20     0.437     0.895       0.385
  cso_20                21.21     0.059     0.798       5.382
  cso_2a                 3.56     0.706     4.340      10.835
  cso_21a                2.18     0.146     0.460       1.374
  cso_10                 0.00     0.000     0.000       0.000
  Wastewater_Treatment_Plant  90.18     0.066     1.658      25.788
  cso_21b               71.62     0.010    63.012       3.063
  cso_2b                62.36     0.176    40.492      47.360
  -----------------------------------------------------------
  System                31.41     1.600    64.356      94.188
  
  
  ********************
  Link Flow Summary
  ********************
  
  -----------------------------------------------------------------------------
                                 Maximum  Time of Max   Maximum    Max/    Max/
                                  |Flow|   Occurrence   |Veloc|    Full    Full
  Link                 Type          CMS  days hr:min     m/sec    Flow   Depth
  -----------------------------------------------------------------------------
  p_20_2               PUMP        6.231     4  04:30            415.41
  WWTP_inlet           PUMP        1.658     4  22:30              1.42
  p_21_2               PUMP        0.042     3  18:00              1.00
  CSO_Pump_21          PUMP       63.012     2  00:30            2268.43
  p10_1                PUMP        0.008     0  09:00              0.01
  p_2_1                PUMP        0.500     1  21:09              1.00
  CSO_Pump_2           PUMP       40.492     3  16:30             72.89
  cso_weir_1           WEIR        0.895     1  23:35                      0.06
  cso_weir_20          WEIR        0.798     3  09:10                      0.08
  cso_weir_2           WEIR        4.340     1  23:15                      0.14
  cso_weir_21          WEIR        0.460     1  23:15                      0.05
  cso_weir_10          WEIR        0.000     0  00:00                      0.00
  
  
  ***************************
  Flow Classification Summary
  ***************************
  
  -------------------------------------------------------------------------------------
                      Adjusted    ---------- Fraction of Time in Flow Class ---------- 
                       /Actual         Up    Down  Sub   Sup   Up    Down  Norm  Inlet 
  Conduit               Length    Dry  Dry   Dry   Crit  Crit  Crit  Crit  Ltd   Ctrl  
  -------------------------------------------------------------------------------------
  
  
  *************************
  Conduit Surcharge Summary
  *************************
  
  No conduits were surcharged.
  
  
  ***************
  Pumping Summary
  ***************
  
  ---------------------------------------------------------------------------------------------------------
                                                  Min       Avg       Max     Total     Power    % Time Off
                        Percent   Number of      Flow      Flow      Flow    Volume     Usage    Pump Curve
  Pump                 Utilized   Start-Ups       CMS       CMS       CMS  10^6 ltr     Kw-hr    Low   High
  ---------------------------------------------------------------------------------------------------------
  p_20_2                  64.79          12      0.00      0.01      6.23     3.733     11.36    0.0   27.1
  WWTP_inlet              90.19          26      0.00      0.07      1.66    25.782     45.42    0.0    0.0
  p_21_2                  48.54           7      0.00      0.00      0.04     0.403      2.45    0.0    0.0
  CSO_Pump_21             71.62          49      0.00      0.01     63.01     3.063     14.19    0.0    0.0
  p10_1                   33.33           1      0.00      0.00      0.01     0.092      0.17    0.0    0.0
  p_2_1                   25.90       10928      0.00      0.11      0.50    11.887     20.24    0.0    0.0
  CSO_Pump_2              62.36       10932      0.00      0.18     40.49    47.349    102.14    0.0    0.0
  

  Analysis begun on:  Sat Jun  8 11:14:32 2024
  Analysis ended on:  Sat Jun  8 11:14:40 2024
  Total elapsed time: 00:00:08