
  EPA STORM WATER MANAGEMENT MODEL - VERSION 5.2 (Build 5.2.4)
  PYSWMM TOOLKIT API - VERSION v1.0 (2023-11-27)
  ------------------------------------------------------------

  
  ****************
  Analysis Options
  ****************
  Flow Units ............... CMS
  Process Models:
    Rainfall/Runoff ........ YES
    RDII ................... NO
    Snowmelt ............... NO
    Groundwater ............ NO
    Flow Routing ........... YES
    Ponding Allowed ........ YES
    Water Quality .......... NO
  Infiltration Method ...... HORTON
  Flow Routing Method ...... DYNWAVE
  Surcharge Method ......... EXTRAN
  Starting Date ............ 02/20/2020 00:00:00
  Ending Date .............. 02/22/2021 00:00:00
  Antecedent Dry Days ...... 0.0
  Report Time Step ......... 00:15:00
  Wet Time Step ............ 00:00:15
  Dry Time Step ............ 01:00:00
  Routing Time Step ........ 8.00 sec
  Variable Time Step ....... YES
  Maximum Trials ........... 16
  Number of Threads ........ 2
  Head Tolerance ........... 0.000015 m
  
  
  **************************        Volume         Depth
  Runoff Quantity Continuity     hectare-m            mm
  **************************     ---------       -------
  Total Precipitation ......         2.897         9.041
  Evaporation Loss .........         0.000         0.000
  Infiltration Loss ........         0.263         0.821
  Surface Runoff ...........         2.408         7.515
  Final Storage ............         0.227         0.708
  Continuity Error (%) .....        -0.043
  
  
  **************************        Volume        Volume
  Flow Routing Continuity        hectare-m      10^6 ltr
  **************************     ---------     ---------
  Dry Weather Inflow .......        26.351       263.511
  Wet Weather Inflow .......         2.409        24.089
  Groundwater Inflow .......         0.000         0.000
  RDII Inflow ..............         0.000         0.000
  External Inflow ..........         0.000         0.000
  External Outflow .........        26.366       263.663
  Flooding Loss ............         0.000         0.000
  Evaporation Loss .........         0.000         0.000
  Exfiltration Loss ........         0.000         0.000
  Initial Stored Volume ....         0.000         0.000
  Final Stored Volume ......         2.392        23.918
  Continuity Error (%) .....         0.007
  
  
  ***************************
  Time-Step Critical Elements
  ***************************
  None
  
  
  ********************************
  Highest Flow Instability Indexes
  ********************************
  All links are stable.
  
  
  *********************************
  Most Frequent Nonconverging Nodes
  *********************************
  Convergence obtained at all time steps.
  
  
  *************************
  Routing Time Step Summary
  *************************
  Minimum Time Step           :     3.95 sec
  Average Time Step           :     7.96 sec
  Maximum Time Step           :     8.00 sec
  % of Time in Steady State   :     0.00
  Average Iterations per Step :     2.08
  % of Steps Not Converging   :     0.52
  Time Step Frequencies       :
      8.000 -  2.899 sec      :   100.00 %
      2.899 -  1.051 sec      :     0.00 %
      1.051 -  0.381 sec      :     0.00 %
      0.381 -  0.138 sec      :     0.00 %
      0.138 -  0.050 sec      :     0.00 %
  
  
  ***************************
  Subcatchment Runoff Summary
  ***************************
  
  ------------------------------------------------------------------------------------------------------------------------------
                            Total      Total      Total      Total     Imperv       Perv      Total       Total     Peak  Runoff
                           Precip      Runon       Evap      Infil     Runoff     Runoff     Runoff      Runoff   Runoff   Coeff
  Subcatchment                 mm         mm         mm         mm         mm         mm         mm    10^6 ltr      CMS
  ------------------------------------------------------------------------------------------------------------------------------
  sub_1a                     5.99       0.00       0.00       1.09       3.70       0.62       4.32        2.89     0.69   0.721
  sub_21a                   10.99       0.00       0.00       0.89       8.62       1.10       9.72        0.84     0.59   0.884
  sub_10a                    5.99       0.00       0.00       0.43       4.45       0.25       4.70        2.72     0.61   0.785
  sub_2a                    10.99       0.00       0.00       0.55       9.02       0.68       9.71       11.21     7.83   0.883
  sub_2b                    10.99       0.00       0.00       3.15       3.68       3.89       7.58        0.58     0.52   0.689
  sub_2c                    10.99       0.00       0.00       1.07       7.66       1.33       8.99        0.84     0.63   0.818
  sub_21b                   10.99       0.00       0.00       0.01       9.93       0.01       9.94        0.30     0.21   0.905
  sub_21c                   10.99       0.00       0.00       4.33       1.24       5.36       6.61        0.11     0.11   0.601
  sub_2d                    10.99       0.00       0.00       1.25       7.16       1.55       8.71        1.16     0.90   0.792
  sub_2e                    10.99       0.00       0.00       1.37       7.14       1.69       8.84        1.09     0.84   0.804
  sub_2f                    10.99       0.00       0.00       0.19      10.00       0.24      10.23        0.39     0.26   0.931
  sub_20a                   10.99       0.00       0.00       0.88       8.52       1.09       9.62        1.93     1.36   0.875
  
  
  ******************
  Node Depth Summary
  ******************
  
  ---------------------------------------------------------------------------------
                                 Average  Maximum  Maximum  Time of Max    Reported
                                   Depth    Depth      HGL   Occurrence   Max Depth
  Node                 Type       Meters   Meters   Meters  days hr:min      Meters
  ---------------------------------------------------------------------------------
  cso_1                OUTFALL      0.00     0.00     8.91     0  00:00        0.00
  cso_20               OUTFALL      0.00     0.00     8.30     0  00:00        0.00
  cso_2a               OUTFALL      0.00     0.00     8.30     0  00:00        0.00
  cso_21a              OUTFALL      0.00     0.00     8.93     0  00:00        0.00
  cso_10               OUTFALL      0.00     0.00     8.31     0  00:00        0.00
  Wastewater_Treatment_Plant OUTFALL      0.00     0.00     9.11     0  00:00        0.00
  cso_21b              OUTFALL      0.00     0.00     9.12     0  00:00        0.00
  cso_2b               OUTFALL      0.00     0.00     9.12     0  00:00        0.00
  j_1                  STORAGE      1.82     1.87    10.94     2  08:40        1.86
  j_21                 STORAGE      2.13     2.21    12.22     2  20:25        2.19
  j_10                 STORAGE      1.28     1.54     9.95   123  23:00        1.54
  j_2                  STORAGE      2.47     2.62    10.41     2  20:25        2.60
  j_20                 STORAGE      1.89     1.97    10.86     2  20:25        1.95
  
  
  *******************
  Node Inflow Summary
  *******************
  
  -------------------------------------------------------------------------------------------------
                                  Maximum  Maximum                  Lateral       Total        Flow
                                  Lateral    Total  Time of Max      Inflow      Inflow     Balance
                                   Inflow   Inflow   Occurrence      Volume      Volume       Error
  Node                 Type           CMS      CMS  days hr:min    10^6 ltr    10^6 ltr     Percent
  -------------------------------------------------------------------------------------------------
  cso_1                OUTFALL      0.000    0.197     2  08:40           0          77       0.000
  cso_20               OUTFALL      0.000    0.218     2  20:25           0        51.2       0.000
  cso_2a               OUTFALL      0.000    1.548     2  20:25           0         114       0.000
  cso_21a              OUTFALL      0.000    0.192     2  20:25           0        18.6       0.000
  cso_10               OUTFALL      0.000    0.000     0  00:00           0           0       0.000 ltr
  Wastewater_Treatment_Plant OUTFALL      0.000    0.333     0  17:50           0        1.61       0.000
  cso_21b              OUTFALL      0.000    0.007     0  17:55           0      0.0818       0.000
  cso_2b               OUTFALL      0.000    0.132     0  17:55           0       0.739       0.000
  j_1                  STORAGE      0.687    0.687     0  18:40        80.8        81.6      -0.094
  j_21                 STORAGE      0.907    0.907     0  19:05        19.9        19.9       0.006
  j_10                 STORAGE      0.608    0.608     0  18:40        8.21        8.21       0.064
  j_2                  STORAGE     10.981   10.981     0  19:05         125         126       0.068
  j_20                 STORAGE      1.361    1.361     0  19:05        53.5        53.5       0.007
  
  
  **********************
  Node Surcharge Summary
  **********************
  
  No nodes were surcharged.
  
  
  *********************
  Node Flooding Summary
  *********************
  
  No nodes were flooded.
  
  
  **********************
  Storage Volume Summary
  **********************
  
  ------------------------------------------------------------------------------------------------
                         Average    Avg   Evap  Exfil     Maximum    Max    Time of Max    Maximum
                          Volume   Pcnt   Pcnt   Pcnt      Volume   Pcnt     Occurrence    Outflow
  Storage Unit           1000 m³   Full   Loss   Loss     1000 m³   Full    days hr:min        CMS
  ------------------------------------------------------------------------------------------------
  j_1                      3.029   85.0    0.0    0.0       3.083   86.5       2  08:40      0.333
  j_21                     1.151   88.0    0.0    0.0       1.172   89.6       2  20:25      0.192
  j_10                     5.255   45.1    0.0    0.0       8.026   68.8     123  23:00      0.225
  j_2                      9.750   61.7    0.0    0.0      11.200   70.8       2  20:25      1.548
  j_20                     1.881   68.6    0.0    0.0       2.013   73.4       2  20:25      0.218
  
  
  ***********************
  Outfall Loading Summary
  ***********************
  
  -----------------------------------------------------------
                         Flow       Avg       Max       Total
                         Freq      Flow      Flow      Volume
  Outfall Node           Pcnt       CMS       CMS    10^6 ltr
  -----------------------------------------------------------
  cso_1                 98.10     0.007     0.197      77.030
  cso_20                97.91     0.005     0.218      51.236
  cso_2a                98.66     0.011     1.548     114.362
  cso_21a               97.74     0.002     0.192      18.604
  cso_10                 0.00     0.000     0.000       0.000
  Wastewater_Treatment_Plant   0.61     0.025     0.333       1.609
  cso_21b                0.61     0.001     0.007       0.082
  cso_2b                 0.30     0.023     0.132       0.739
  -----------------------------------------------------------
  System                49.24     0.074     1.953     263.662
  
  
  ********************
  Link Flow Summary
  ********************
  
  -----------------------------------------------------------------------------
                                 Maximum  Time of Max   Maximum    Max/    Max/
                                  |Flow|   Occurrence   |Veloc|    Full    Full
  Link                 Type          CMS  days hr:min     m/sec    Flow   Depth
  -----------------------------------------------------------------------------
  p_20_2               PUMP        0.015     0  17:40              1.00
  WWTP_inlet           PUMP        0.333     0  17:50              0.29
  p_21_2               PUMP        0.006     0  17:55              0.15
  CSO_Pump_21          PUMP        0.007     0  17:55              0.26
  p10_1                PUMP        0.225     0  17:50              0.32
  p_2_1                PUMP        0.095     0  17:55              0.19
  CSO_Pump_2           PUMP        0.132     0  17:55              0.24
  cso_weir_1           WEIR        0.197     2  08:40                      0.02
  cso_weir_20          WEIR        0.218     2  20:25                      0.03
  cso_weir_2           WEIR        1.548     2  20:25                      0.07
  cso_weir_21          WEIR        0.192     2  20:25                      0.03
  cso_weir_10          WEIR        0.000     0  00:00                      0.00
  
  
  ***************************
  Flow Classification Summary
  ***************************
  
  -------------------------------------------------------------------------------------
                      Adjusted    ---------- Fraction of Time in Flow Class ---------- 
                       /Actual         Up    Down  Sub   Sup   Up    Down  Norm  Inlet 
  Conduit               Length    Dry  Dry   Dry   Crit  Crit  Crit  Crit  Ltd   Ctrl  
  -------------------------------------------------------------------------------------
  
  
  *************************
  Conduit Surcharge Summary
  *************************
  
  No conduits were surcharged.
  
  
  ***************
  Pumping Summary
  ***************
  
  ---------------------------------------------------------------------------------------------------------
                                                  Min       Avg       Max     Total     Power    % Time Off
                        Percent   Number of      Flow      Flow      Flow    Volume     Usage    Pump Curve
  Pump                 Utilized   Start-Ups       CMS       CMS       CMS  10^6 ltr     Kw-hr    Low   High
  ---------------------------------------------------------------------------------------------------------
  p_20_2                   0.61           1      0.00      0.01      0.01     0.403      1.21    0.0    1.8
  WWTP_inlet               0.61           1      0.00      0.02      0.33     1.609      0.18    0.0    0.0
  p_21_2                   0.61           1      0.00      0.00      0.01     0.074      0.44    0.0    0.0
  CSO_Pump_21              0.61           1      0.00      0.00      0.01     0.082      0.20    0.0    0.0
  p10_1                    0.60           2      0.00      0.00      0.23     0.181      0.35    0.0    0.0
  p_2_1                    0.30        4061      0.00      0.02      0.09     0.587      2.06    0.0    0.0
  CSO_Pump_2               0.30        4052      0.00      0.02      0.13     0.739      2.66    0.0    0.0
  

  Analysis begun on:  Tue May 28 15:11:38 2024
  Analysis ended on:  Tue May 28 15:20:18 2024
  Total elapsed time: 00:08:40