
  EPA STORM WATER MANAGEMENT MODEL - VERSION 5.2 (Build 5.2.4)
  PYSWMM TOOLKIT API - VERSION v1.0 (2023-11-27)
  ------------------------------------------------------------

  
  ****************
  Analysis Options
  ****************
  Flow Units ............... CMS
  Process Models:
    Rainfall/Runoff ........ YES
    RDII ................... NO
    Snowmelt ............... NO
    Groundwater ............ NO
    Flow Routing ........... YES
    Ponding Allowed ........ YES
    Water Quality .......... NO
  Infiltration Method ...... HORTON
  Flow Routing Method ...... DYNWAVE
  Surcharge Method ......... EXTRAN
  Starting Date ............ 09/22/2020 00:00:00
  Ending Date .............. 09/30/2020 00:00:00
  Antecedent Dry Days ...... 0.0
  Report Time Step ......... 00:15:00
  Wet Time Step ............ 00:00:15
  Dry Time Step ............ 01:00:00
  Routing Time Step ........ 8.00 sec
  Variable Time Step ....... YES
  Maximum Trials ........... 16
  Number of Threads ........ 2
  Head Tolerance ........... 0.000015 m
  
  
  **************************        Volume         Depth
  Runoff Quantity Continuity     hectare-m            mm
  **************************     ---------       -------
  Total Precipitation ......        14.441        45.073
  Evaporation Loss .........         0.000         0.000
  Infiltration Loss ........         0.907         2.831
  Surface Runoff ...........        13.313        41.553
  Final Storage ............         0.227         0.708
  Continuity Error (%) .....        -0.042
  
  
  **************************        Volume        Volume
  Flow Routing Continuity        hectare-m      10^6 ltr
  **************************     ---------     ---------
  Dry Weather Inflow .......         1.700        17.002
  Wet Weather Inflow .......        13.314       133.140
  Groundwater Inflow .......         0.000         0.000
  RDII Inflow ..............         0.000         0.000
  External Inflow ..........         0.000         0.000
  External Outflow .........        12.348       123.477
  Flooding Loss ............         0.000         0.000
  Evaporation Loss .........         0.000         0.000
  Exfiltration Loss ........         0.000         0.000
  Initial Stored Volume ....         0.000         0.000
  Final Stored Volume ......         2.676        26.763
  Continuity Error (%) .....        -0.065
  
  
  ***************************
  Time-Step Critical Elements
  ***************************
  None
  
  
  ********************************
  Highest Flow Instability Indexes
  ********************************
  Link p_2_1 (36)
  Link CSO_Pump_2 (36)
  Link WWTP_inlet (21)
  
  
  *********************************
  Most Frequent Nonconverging Nodes
  *********************************
  Convergence obtained at all time steps.
  
  
  *************************
  Routing Time Step Summary
  *************************
  Minimum Time Step           :     3.95 sec
  Average Time Step           :     7.96 sec
  Maximum Time Step           :     8.00 sec
  % of Time in Steady State   :     0.00
  Average Iterations per Step :     5.08
  % of Steps Not Converging   :    19.78
  Time Step Frequencies       :
      8.000 -  2.899 sec      :   100.00 %
      2.899 -  1.051 sec      :     0.00 %
      1.051 -  0.381 sec      :     0.00 %
      0.381 -  0.138 sec      :     0.00 %
      0.138 -  0.050 sec      :     0.00 %
  
  
  ***************************
  Subcatchment Runoff Summary
  ***************************
  
  ------------------------------------------------------------------------------------------------------------------------------
                            Total      Total      Total      Total     Imperv       Perv      Total       Total     Peak  Runoff
                           Precip      Runon       Evap      Infil     Runoff     Runoff     Runoff      Runoff   Runoff   Coeff
  Subcatchment                 mm         mm         mm         mm         mm         mm         mm    10^6 ltr      CMS
  ------------------------------------------------------------------------------------------------------------------------------
  sub_1a                    44.39       0.00       0.00       4.17      31.20       8.47      39.67       26.58     2.99   0.894
  sub_21a                   45.51       0.00       0.00       2.87      36.89       5.38      42.27        3.66     0.43   0.929
  sub_10a                   44.39       0.00       0.00       1.66      38.50       3.38      41.88       24.25     2.60   0.944
  sub_2a                    45.51       0.00       0.00       1.78      39.67       3.34      43.01       49.65     5.76   0.945
  sub_2b                    45.51       0.00       0.00      10.13      16.11      19.04      35.14        2.70     0.38   0.772
  sub_2c                    45.51       0.00       0.00       3.45      34.67       6.48      41.15        3.83     0.46   0.904
  sub_21b                   45.51       0.00       0.00       0.03      44.40       0.05      44.45        1.35     0.15   0.977
  sub_21c                   45.51       0.00       0.00      13.95       5.34      26.21      31.55        0.53     0.08   0.693
  sub_2d                    45.51       0.00       0.00       4.03      32.91       7.57      40.48        5.42     0.66   0.889
  sub_2e                    45.51       0.00       0.00       4.41      32.06       8.28      40.33        5.00     0.61   0.886
  sub_2f                    45.51       0.00       0.00       0.62      43.17       1.16      44.33        1.69     0.19   0.974
  sub_20a                   45.51       0.00       0.00       2.84      36.84       5.34      42.19        8.47     1.00   0.927
  
  
  ******************
  Node Depth Summary
  ******************
  
  ---------------------------------------------------------------------------------
                                 Average  Maximum  Maximum  Time of Max    Reported
                                   Depth    Depth      HGL   Occurrence   Max Depth
  Node                 Type       Meters   Meters   Meters  days hr:min      Meters
  ---------------------------------------------------------------------------------
  cso_1                OUTFALL      0.00     0.00     8.91     0  00:00        0.00
  cso_20               OUTFALL      0.00     0.00     8.30     0  00:00        0.00
  cso_2a               OUTFALL      0.00     0.00     8.30     0  00:00        0.00
  cso_21a              OUTFALL      0.00     0.00     8.93     0  00:00        0.00
  cso_10               OUTFALL      0.00     0.00     8.31     0  00:00        0.00
  Wastewater_Treatment_Plant OUTFALL      0.00     0.00     9.11     0  00:00        0.00
  cso_21b              OUTFALL      0.00     0.00     9.12     0  00:00        0.00
  cso_2b               OUTFALL      0.00     0.00     9.12     0  00:00        0.00
  j_1                  STORAGE      1.33     2.06    11.13     3  22:20        2.03
  j_21                 STORAGE      1.47     2.28    12.29     5  01:20        2.27
  j_10                 STORAGE      1.32     2.38    10.79     4  21:55        2.38
  j_2                  STORAGE      1.88     2.89    10.68     5  01:20        2.81
  j_20                 STORAGE      1.41     2.08    10.97     5  01:20        2.04
  
  
  *******************
  Node Inflow Summary
  *******************
  
  -------------------------------------------------------------------------------------------------
                                  Maximum  Maximum                  Lateral       Total        Flow
                                  Lateral    Total  Time of Max      Inflow      Inflow     Balance
                                   Inflow   Inflow   Occurrence      Volume      Volume       Error
  Node                 Type           CMS      CMS  days hr:min    10^6 ltr    10^6 ltr     Percent
  -------------------------------------------------------------------------------------------------
  cso_1                OUTFALL      0.000    2.535     3  22:20           0        14.9       0.000
  cso_20               OUTFALL      0.000    0.947     5  01:20           0        8.51       0.000
  cso_2a               OUTFALL      0.000    7.708     5  01:20           0        63.9       0.000
  cso_21a              OUTFALL      0.000    0.666     5  01:20           0        5.28       0.000
  cso_10               OUTFALL      0.000    1.908     4  21:55           0        5.02       0.000
  Wastewater_Treatment_Plant OUTFALL      0.000    1.167     4  17:15           0        24.2       0.000
  cso_21b              OUTFALL      0.000    0.020     1  21:45           0       0.163       0.000
  cso_2b               OUTFALL      0.000    0.289     1  21:44           0        1.49       0.000
  j_1                  STORAGE      2.987    2.987     3  22:15        31.6          42      -0.444
  j_21                 STORAGE      0.666    0.666     5  01:15        6.75        6.75       0.003
  j_10                 STORAGE      2.596    2.596     3  22:15        24.6        24.6      -0.011
  j_2                  STORAGE      8.066    8.066     5  01:15        75.4        76.9       0.118
  j_20                 STORAGE      1.000    1.000     5  01:16        11.8        11.8       0.004
  
  
  **********************
  Node Surcharge Summary
  **********************
  
  No nodes were surcharged.
  
  
  *********************
  Node Flooding Summary
  *********************
  
  No nodes were flooded.
  
  
  **********************
  Storage Volume Summary
  **********************
  
  ------------------------------------------------------------------------------------------------
                         Average    Avg   Evap  Exfil     Maximum    Max    Time of Max    Maximum
                          Volume   Pcnt   Pcnt   Pcnt      Volume   Pcnt     Occurrence    Outflow
  Storage Unit           1000 m³   Full   Loss   Loss     1000 m³   Full    days hr:min        CMS
  ------------------------------------------------------------------------------------------------
  j_1                      2.229   62.5    0.0    0.0       3.196   89.6       3  22:20      2.919
  j_21                     0.814   62.2    0.0    0.0       1.182   90.4       5  01:20      0.666
  j_10                     6.015   51.6    0.0    0.0      11.075   95.0       4  21:55      2.453
  j_2                      7.246   45.8    0.0    0.0      12.785   80.8       5  01:20      7.708
  j_20                     1.345   49.1    0.0    0.0       2.179   79.5       5  01:20      0.947
  
  
  ***********************
  Outfall Loading Summary
  ***********************
  
  -----------------------------------------------------------
                         Flow       Avg       Max       Total
                         Freq      Flow      Flow      Volume
  Outfall Node           Pcnt       CMS       CMS    10^6 ltr
  -----------------------------------------------------------
  cso_1                 60.41     0.036     2.535      14.938
  cso_20                58.83     0.021     0.947       8.509
  cso_2a                63.46     0.146     7.708      63.896
  cso_21a               57.08     0.013     0.666       5.281
  cso_10                29.72     0.024     1.908       5.022
  Wastewater_Treatment_Plant  28.38     0.123     1.167      24.174
  cso_21b               23.96     0.001     0.020       0.163
  cso_2b                11.97     0.018     0.289       1.494
  -----------------------------------------------------------
  System                41.73     0.383     9.327     123.476
  
  
  ********************
  Link Flow Summary
  ********************
  
  -----------------------------------------------------------------------------
                                 Maximum  Time of Max   Maximum    Max/    Max/
                                  |Flow|   Occurrence   |Veloc|    Full    Full
  Link                 Type          CMS  days hr:min     m/sec    Flow   Depth
  -----------------------------------------------------------------------------
  p_20_2               PUMP        0.015     1  21:40              1.00
  WWTP_inlet           PUMP        1.167     4  17:15              1.00
  p_21_2               PUMP        0.018     1  21:45              0.43
  CSO_Pump_21          PUMP        0.020     1  21:45              0.72
  p10_1                PUMP        0.680     4  22:00              0.98
  p_2_1                PUMP        0.280     1  21:41              0.56
  CSO_Pump_2           PUMP        0.289     1  21:44              0.52
  cso_weir_1           WEIR        2.535     3  22:20                      0.12
  cso_weir_20          WEIR        0.947     5  01:20                      0.09
  cso_weir_2           WEIR        7.708     5  01:20                      0.21
  cso_weir_21          WEIR        0.666     5  01:20                      0.06
  cso_weir_10          WEIR        1.908     4  21:55                      0.09
  
  
  ***************************
  Flow Classification Summary
  ***************************
  
  -------------------------------------------------------------------------------------
                      Adjusted    ---------- Fraction of Time in Flow Class ---------- 
                       /Actual         Up    Down  Sub   Sup   Up    Down  Norm  Inlet 
  Conduit               Length    Dry  Dry   Dry   Crit  Crit  Crit  Crit  Ltd   Ctrl  
  -------------------------------------------------------------------------------------
  
  
  *************************
  Conduit Surcharge Summary
  *************************
  
  No conduits were surcharged.
  
  
  ***************
  Pumping Summary
  ***************
  
  ---------------------------------------------------------------------------------------------------------
                                                  Min       Avg       Max     Total     Power    % Time Off
                        Percent   Number of      Flow      Flow      Flow    Volume     Usage    Pump Curve
  Pump                 Utilized   Start-Ups       CMS       CMS       CMS  10^6 ltr     Kw-hr    Low   High
  ---------------------------------------------------------------------------------------------------------
  p_20_2                  29.56           4      0.00      0.01      0.01     1.400      3.19    0.0   19.5
  WWTP_inlet              28.38           6      0.00      0.12      1.17    24.174     88.77    0.0    0.0
  p_21_2                  23.83           1      0.00      0.00      0.02     0.146      0.88    0.0    0.0
  CSO_Pump_21             23.96           2      0.00      0.00      0.02     0.163      0.40    0.0    0.0
  p10_1                   42.84          14      0.00      0.03      0.68     8.739      6.40    0.0    0.0
  p_2_1                   12.45       10332      0.00      0.02      0.28     1.636      4.52    0.0    0.0
  CSO_Pump_2              11.97       10290      0.00      0.02      0.29     1.494      5.37    0.0    0.0
  

  Analysis begun on:  Mon Jun  3 21:43:00 2024
  Analysis ended on:  Mon Jun  3 21:44:14 2024
  Total elapsed time: 00:01:14