
  EPA STORM WATER MANAGEMENT MODEL - VERSION 5.2 (Build 5.2.4)
  PYSWMM TOOLKIT API - VERSION v1.0 (2023-11-27)
  ------------------------------------------------------------

  
  ****************
  Analysis Options
  ****************
  Flow Units ............... CMS
  Process Models:
    Rainfall/Runoff ........ YES
    RDII ................... NO
    Snowmelt ............... NO
    Groundwater ............ NO
    Flow Routing ........... YES
    Ponding Allowed ........ YES
    Water Quality .......... NO
  Infiltration Method ...... HORTON
  Flow Routing Method ...... DYNWAVE
  Surcharge Method ......... EXTRAN
  Starting Date ............ 06/11/2020 00:00:00
  Ending Date .............. 06/16/2020 00:00:00
  Antecedent Dry Days ...... 0.0
  Report Time Step ......... 00:15:00
  Wet Time Step ............ 00:00:15
  Dry Time Step ............ 01:00:00
  Routing Time Step ........ 8.00 sec
  Variable Time Step ....... YES
  Maximum Trials ........... 16
  Number of Threads ........ 2
  Head Tolerance ........... 0.000015 m
  
  
  **************************        Volume         Depth
  Runoff Quantity Continuity     hectare-m            mm
  **************************     ---------       -------
  Total Precipitation ......         0.394         1.229
  Evaporation Loss .........         0.000         0.000
  Infiltration Loss ........         0.029         0.089
  Surface Runoff ...........         0.175         0.545
  Final Storage ............         0.196         0.611
  Continuity Error (%) .....        -1.328
  
  
  **************************        Volume        Volume
  Flow Routing Continuity        hectare-m      10^6 ltr
  **************************     ---------     ---------
  Dry Weather Inflow .......         0.373         3.732
  Wet Weather Inflow .......         0.170         1.705
  Groundwater Inflow .......         0.000         0.000
  RDII Inflow ..............         0.000         0.000
  External Inflow ..........         0.000         0.000
  External Outflow .........         0.430         4.297
  Flooding Loss ............         0.000         0.000
  Evaporation Loss .........         0.000         0.000
  Exfiltration Loss ........         0.000         0.000
  Initial Stored Volume ....         0.000         0.000
  Final Stored Volume ......         0.114         1.136
  Continuity Error (%) .....         0.075
  
  
  *************************
  Highest Continuity Errors
  *************************
  Node j_1 (-5.86%)
  Node j_2 (3.69%)
  
  
  ***************************
  Time-Step Critical Elements
  ***************************
  None
  
  
  ********************************
  Highest Flow Instability Indexes
  ********************************
  Link p_2_1 (149)
  Link CSO_Pump_2 (149)
  Link WWTP_inlet (92)
  
  
  *********************************
  Most Frequent Nonconverging Nodes
  *********************************
  Convergence obtained at all time steps.
  
  
  *************************
  Routing Time Step Summary
  *************************
  Minimum Time Step           :     3.95 sec
  Average Time Step           :     7.96 sec
  Maximum Time Step           :     8.00 sec
  % of Time in Steady State   :     0.00
  Average Iterations per Step :    14.62
  % of Steps Not Converging   :    83.16
  Time Step Frequencies       :
      8.000 -  2.899 sec      :   100.00 %
      2.899 -  1.051 sec      :     0.00 %
      1.051 -  0.381 sec      :     0.00 %
      0.381 -  0.138 sec      :     0.00 %
      0.138 -  0.050 sec      :     0.00 %
  
  
  ***************************
  Subcatchment Runoff Summary
  ***************************
  
  ------------------------------------------------------------------------------------------------------------------------------
                            Total      Total      Total      Total     Imperv       Perv      Total       Total     Peak  Runoff
                           Precip      Runon       Evap      Infil     Runoff     Runoff     Runoff      Runoff   Runoff   Coeff
  Subcatchment                 mm         mm         mm         mm         mm         mm         mm    10^6 ltr      CMS
  ------------------------------------------------------------------------------------------------------------------------------
  sub_1a                     0.46       0.00       0.00       0.13       0.05       0.00       0.05        0.03     0.02   0.110
  sub_21a                    1.72       0.00       0.00       0.09       1.04       0.14       1.17        0.10     0.34   0.683
  sub_10a                    0.46       0.00       0.00       0.05       0.03       0.00       0.03        0.01     0.01   0.055
  sub_2a                     1.72       0.00       0.00       0.06       0.81       0.08       0.89        1.03     4.52   0.519
  sub_2b                     1.72       0.00       0.00       0.32       0.36       0.48       0.85        0.07     0.28   0.493
  sub_2c                     1.72       0.00       0.00       0.11       0.45       0.16       0.62        0.06     0.36   0.358
  sub_21b                    1.72       0.00       0.00       0.00       0.73       0.00       0.73        0.02     0.12   0.426
  sub_21c                    1.72       0.00       0.00       0.44       0.15       0.67       0.81        0.01     0.06   0.473
  sub_2d                     1.72       0.00       0.00       0.13       0.29       0.19       0.48        0.06     0.52   0.280
  sub_2e                     1.72       0.00       0.00       0.14       0.48       0.21       0.69        0.09     0.48   0.403
  sub_2f                     1.72       0.00       0.00       0.02       1.12       0.03       1.15        0.04     0.15   0.668
  sub_20a                    1.72       0.00       0.00       0.09       0.93       0.14       1.06        0.21     0.78   0.618
  
  
  ******************
  Node Depth Summary
  ******************
  
  ---------------------------------------------------------------------------------
                                 Average  Maximum  Maximum  Time of Max    Reported
                                   Depth    Depth      HGL   Occurrence   Max Depth
  Node                 Type       Meters   Meters   Meters  days hr:min      Meters
  ---------------------------------------------------------------------------------
  cso_1                OUTFALL      0.00     0.00     8.91     0  00:00        0.00
  cso_20               OUTFALL      0.00     0.00     8.30     0  00:00        0.00
  cso_2a               OUTFALL      0.00     0.00     8.30     0  00:00        0.00
  cso_21a              OUTFALL      0.00     0.00     8.93     0  00:00        0.00
  cso_10               OUTFALL      0.00     0.00     8.31     0  00:00        0.00
  Wastewater_Treatment_Plant OUTFALL      0.00     0.00     9.11     0  00:00        0.00
  cso_21b              OUTFALL      0.00     0.00     9.12     0  00:00        0.00
  cso_2b               OUTFALL      0.00     0.00     9.12     0  00:00        0.00
  j_1                  STORAGE      0.01     0.15     9.22     1  16:00        0.15
  j_21                 STORAGE      0.00     0.46    10.47     1  16:00        0.46
  j_10                 STORAGE      0.00     0.00     8.41     0  09:00        0.00
  j_2                  STORAGE      0.01     1.50     9.29     1  16:00        1.50
  j_20                 STORAGE      0.00     1.00     9.89     1  16:00        1.00
  
  
  *******************
  Node Inflow Summary
  *******************
  
  -------------------------------------------------------------------------------------------------
                                  Maximum  Maximum                  Lateral       Total        Flow
                                  Lateral    Total  Time of Max      Inflow      Inflow     Balance
                                   Inflow   Inflow   Occurrence      Volume      Volume       Error
  Node                 Type           CMS      CMS  days hr:min    10^6 ltr    10^6 ltr     Percent
  -------------------------------------------------------------------------------------------------
  cso_1                OUTFALL      0.000    0.000     0  00:00           0           0       0.000 ltr
  cso_20               OUTFALL      0.000    0.000     0  00:00           0           0       0.000 ltr
  cso_2a               OUTFALL      0.000    0.000     0  00:00           0           0       0.000 ltr
  cso_21a              OUTFALL      0.000    0.000     0  00:00           0           0       0.000 ltr
  cso_10               OUTFALL      0.000    0.000     0  00:00           0           0       0.000 ltr
  Wastewater_Treatment_Plant OUTFALL      0.000    0.333     1  15:54           0        2.57       0.000
  cso_21b              OUTFALL      0.000    0.028     1  15:51           0       0.157       0.000
  cso_2b               OUTFALL      0.000    0.534     1  16:00           0        1.57       0.000
  j_1                  STORAGE      0.034    0.393     1  16:00        1.14        2.45      -5.532
  j_21                 STORAGE      0.520    0.520     1  15:55         0.4         0.4       0.745
  j_10                 STORAGE      0.009    0.009     0  09:00      0.0923      0.0923       0.001
  j_2                  STORAGE      6.323    6.363     1  15:55        2.87        3.75       3.826
  j_20                 STORAGE      0.788    0.788     1  15:55       0.941       0.941       0.725
  
  
  **********************
  Node Surcharge Summary
  **********************
  
  No nodes were surcharged.
  
  
  *********************
  Node Flooding Summary
  *********************
  
  No nodes were flooded.
  
  
  **********************
  Storage Volume Summary
  **********************
  
  ------------------------------------------------------------------------------------------------
                         Average    Avg   Evap  Exfil     Maximum    Max    Time of Max    Maximum
                          Volume   Pcnt   Pcnt   Pcnt      Volume   Pcnt     Occurrence    Outflow
  Storage Unit           1000 m³   Full   Loss   Loss     1000 m³   Full    days hr:min        CMS
  ------------------------------------------------------------------------------------------------
  j_1                      0.000    0.0    0.0    0.0       0.028    0.8       1  16:00      0.333
  j_21                     0.000    0.0    0.0    0.0       0.099    7.6       1  16:00      0.053
  j_10                     0.000    0.0    0.0    0.0       0.000    0.0       0  09:00      0.008
  j_2                      0.002    0.0    0.0    0.0       0.814    5.1       1  16:00      0.915
  j_20                     0.000    0.0    0.0    0.0       0.195    7.1       1  16:00      0.015
  
  
  ***********************
  Outfall Loading Summary
  ***********************
  
  -----------------------------------------------------------
                         Flow       Avg       Max       Total
                         Freq      Flow      Flow      Volume
  Outfall Node           Pcnt       CMS       CMS    10^6 ltr
  -----------------------------------------------------------
  cso_1                  0.00     0.000     0.000       0.000
  cso_20                 0.00     0.000     0.000       0.000
  cso_2a                 0.00     0.000     0.000       0.000
  cso_21a                0.00     0.000     0.000       0.000
  cso_10                 0.00     0.000     0.000       0.000
  Wastewater_Treatment_Plant  99.99     0.018     0.333       2.569
  cso_21b               99.99     0.001     0.028       0.157
  cso_2b                50.40     0.022     0.534       1.571
  -----------------------------------------------------------
  System                31.30     0.041     0.895       4.297
  
  
  ********************
  Link Flow Summary
  ********************
  
  -----------------------------------------------------------------------------
                                 Maximum  Time of Max   Maximum    Max/    Max/
                                  |Flow|   Occurrence   |Veloc|    Full    Full
  Link                 Type          CMS  days hr:min     m/sec    Flow   Depth
  -----------------------------------------------------------------------------
  p_20_2               PUMP        0.015     1  15:50              1.00
  WWTP_inlet           PUMP        0.333     1  15:54              0.29
  p_21_2               PUMP        0.025     1  15:51              0.60
  CSO_Pump_21          PUMP        0.028     1  15:51              1.00
  p10_1                PUMP        0.008     0  09:00              0.01
  p_2_1                PUMP        0.380     1  16:00              0.76
  CSO_Pump_2           PUMP        0.534     1  16:00              0.96
  cso_weir_1           WEIR        0.000     0  00:00                      0.00
  cso_weir_20          WEIR        0.000     0  00:00                      0.00
  cso_weir_2           WEIR        0.000     0  00:00                      0.00
  cso_weir_21          WEIR        0.000     0  00:00                      0.00
  cso_weir_10          WEIR        0.000     0  00:00                      0.00
  
  
  ***************************
  Flow Classification Summary
  ***************************
  
  -------------------------------------------------------------------------------------
                      Adjusted    ---------- Fraction of Time in Flow Class ---------- 
                       /Actual         Up    Down  Sub   Sup   Up    Down  Norm  Inlet 
  Conduit               Length    Dry  Dry   Dry   Crit  Crit  Crit  Crit  Ltd   Ctrl  
  -------------------------------------------------------------------------------------
  
  
  *************************
  Conduit Surcharge Summary
  *************************
  
  No conduits were surcharged.
  
  
  ***************
  Pumping Summary
  ***************
  
  ---------------------------------------------------------------------------------------------------------
                                                  Min       Avg       Max     Total     Power    % Time Off
                        Percent   Number of      Flow      Flow      Flow    Volume     Usage    Pump Curve
  Pump                 Utilized   Start-Ups       CMS       CMS       CMS  10^6 ltr     Kw-hr    Low   High
  ---------------------------------------------------------------------------------------------------------
  p_20_2                 100.00           1      0.00      0.01      0.01     0.739      2.19    0.0    0.4
  WWTP_inlet              99.99           2      0.00      0.02      0.33     2.570      0.24    0.0    0.0
  p_21_2                 100.00           1      0.00      0.00      0.03     0.141      0.82    0.0    0.0
  CSO_Pump_21            100.00           1      0.00      0.00      0.03     0.157      0.40    0.0    0.0
  p10_1                  100.00           1      0.00      0.00      0.01     0.092      0.17    0.0    0.0
  p_2_1                   50.21        9002      0.00      0.02      0.38     1.224      3.73    0.0    0.0
  CSO_Pump_2              50.39        8968      0.00      0.02      0.53     1.573      4.90    0.0    0.0
  

  Analysis begun on:  Tue May 28 13:40:19 2024
  Analysis ended on:  Tue May 28 13:40:21 2024
  Total elapsed time: 00:00:02