
  EPA STORM WATER MANAGEMENT MODEL - VERSION 5.2 (Build 5.2.4)
  PYSWMM TOOLKIT API - VERSION v1.0 (2023-11-27)
  ------------------------------------------------------------

  
  ****************
  Analysis Options
  ****************
  Flow Units ............... CMS
  Process Models:
    Rainfall/Runoff ........ YES
    RDII ................... NO
    Snowmelt ............... NO
    Groundwater ............ NO
    Flow Routing ........... YES
    Ponding Allowed ........ YES
    Water Quality .......... NO
  Infiltration Method ...... HORTON
  Flow Routing Method ...... DYNWAVE
  Surcharge Method ......... EXTRAN
  Starting Date ............ 09/22/2020 00:00:00
  Ending Date .............. 09/30/2020 00:00:00
  Antecedent Dry Days ...... 0.0
  Report Time Step ......... 00:15:00
  Wet Time Step ............ 00:00:15
  Dry Time Step ............ 01:00:00
  Routing Time Step ........ 8.00 sec
  Variable Time Step ....... YES
  Maximum Trials ........... 16
  Number of Threads ........ 2
  Head Tolerance ........... 0.000015 m
  
  
  **************************        Volume         Depth
  Runoff Quantity Continuity     hectare-m            mm
  **************************     ---------       -------
  Total Precipitation ......        14.441        45.073
  Evaporation Loss .........         0.000         0.000
  Infiltration Loss ........         0.907         2.831
  Surface Runoff ...........        13.313        41.553
  Final Storage ............         0.227         0.708
  Continuity Error (%) .....        -0.042
  
  
  **************************        Volume        Volume
  Flow Routing Continuity        hectare-m      10^6 ltr
  **************************     ---------     ---------
  Dry Weather Inflow .......         1.700        17.002
  Wet Weather Inflow .......        13.314       133.140
  Groundwater Inflow .......         0.000         0.000
  RDII Inflow ..............         0.000         0.000
  External Inflow ..........         0.000         0.000
  External Outflow .........        14.901       149.014
  Flooding Loss ............         0.000         0.000
  Evaporation Loss .........         0.000         0.000
  Exfiltration Loss ........         0.000         0.000
  Initial Stored Volume ....         0.000         0.000
  Final Stored Volume ......         0.175         1.753
  Continuity Error (%) .....        -0.416
  
  
  ***************************
  Time-Step Critical Elements
  ***************************
  None
  
  
  ********************************
  Highest Flow Instability Indexes
  ********************************
  Link CSO_Pump_2 (122)
  Link p_2_1 (103)
  Link WWTP_inlet (75)
  Link p10_1 (1)
  
  
  *********************************
  Most Frequent Nonconverging Nodes
  *********************************
  Convergence obtained at all time steps.
  
  
  *************************
  Routing Time Step Summary
  *************************
  Minimum Time Step           :     3.95 sec
  Average Time Step           :     7.96 sec
  Maximum Time Step           :     8.00 sec
  % of Time in Steady State   :     0.00
  Average Iterations per Step :    13.04
  % of Steps Not Converging   :    72.55
  Time Step Frequencies       :
      8.000 -  2.899 sec      :   100.00 %
      2.899 -  1.051 sec      :     0.00 %
      1.051 -  0.381 sec      :     0.00 %
      0.381 -  0.138 sec      :     0.00 %
      0.138 -  0.050 sec      :     0.00 %
  
  
  ***************************
  Subcatchment Runoff Summary
  ***************************
  
  ------------------------------------------------------------------------------------------------------------------------------
                            Total      Total      Total      Total     Imperv       Perv      Total       Total     Peak  Runoff
                           Precip      Runon       Evap      Infil     Runoff     Runoff     Runoff      Runoff   Runoff   Coeff
  Subcatchment                 mm         mm         mm         mm         mm         mm         mm    10^6 ltr      CMS
  ------------------------------------------------------------------------------------------------------------------------------
  sub_1a                    44.39       0.00       0.00       4.17      31.20       8.47      39.67       26.58     2.99   0.894
  sub_21a                   45.51       0.00       0.00       2.87      36.89       5.38      42.27        3.66     0.43   0.929
  sub_10a                   44.39       0.00       0.00       1.66      38.50       3.38      41.88       24.25     2.60   0.944
  sub_2a                    45.51       0.00       0.00       1.78      39.67       3.34      43.01       49.65     5.76   0.945
  sub_2b                    45.51       0.00       0.00      10.13      16.11      19.04      35.14        2.70     0.38   0.772
  sub_2c                    45.51       0.00       0.00       3.45      34.67       6.48      41.15        3.83     0.46   0.904
  sub_21b                   45.51       0.00       0.00       0.03      44.40       0.05      44.45        1.35     0.15   0.977
  sub_21c                   45.51       0.00       0.00      13.95       5.34      26.21      31.55        0.53     0.08   0.693
  sub_2d                    45.51       0.00       0.00       4.03      32.91       7.57      40.48        5.42     0.66   0.889
  sub_2e                    45.51       0.00       0.00       4.41      32.06       8.28      40.33        5.00     0.61   0.886
  sub_2f                    45.51       0.00       0.00       0.62      43.17       1.16      44.33        1.69     0.19   0.974
  sub_20a                   45.51       0.00       0.00       2.84      36.84       5.34      42.19        8.47     1.00   0.927
  
  
  ******************
  Node Depth Summary
  ******************
  
  ---------------------------------------------------------------------------------
                                 Average  Maximum  Maximum  Time of Max    Reported
                                   Depth    Depth      HGL   Occurrence   Max Depth
  Node                 Type       Meters   Meters   Meters  days hr:min      Meters
  ---------------------------------------------------------------------------------
  cso_1                OUTFALL      0.00     0.00     8.91     0  00:00        0.00
  cso_20               OUTFALL      0.00     0.00     8.30     0  00:00        0.00
  cso_2a               OUTFALL      0.00     0.00     8.30     0  00:00        0.00
  cso_21a              OUTFALL      0.00     0.00     8.93     0  00:00        0.00
  cso_10               OUTFALL      0.00     0.00     8.31     0  00:00        0.00
  Wastewater_Treatment_Plant OUTFALL      0.00     0.00     9.11     0  00:00        0.00
  cso_21b              OUTFALL      0.00     0.00     9.12     0  00:00        0.00
  cso_2b               OUTFALL      0.00     0.00     9.12     0  00:00        0.00
  j_1                  STORAGE      0.16     2.01    11.08     4  21:55        2.01
  j_21                 STORAGE      0.09     2.28    12.29     5  01:20        2.26
  j_10                 STORAGE      0.53     1.54     9.95     5  08:45        1.54
  j_2                  STORAGE      0.20     2.80    10.59     5  01:20        2.68
  j_20                 STORAGE      1.35     2.08    10.97     5  01:20        2.05
  
  
  *******************
  Node Inflow Summary
  *******************
  
  -------------------------------------------------------------------------------------------------
                                  Maximum  Maximum                  Lateral       Total        Flow
                                  Lateral    Total  Time of Max      Inflow      Inflow     Balance
                                   Inflow   Inflow   Occurrence      Volume      Volume       Error
  Node                 Type           CMS      CMS  days hr:min    10^6 ltr    10^6 ltr     Percent
  -------------------------------------------------------------------------------------------------
  cso_1                OUTFALL      0.000    1.814     4  21:55           0        6.06       0.000
  cso_20               OUTFALL      0.000    0.951     5  01:20           0        7.21       0.000
  cso_2a               OUTFALL      0.000    5.282     5  01:20           0        6.36       0.000
  cso_21a              OUTFALL      0.000    0.596     5  01:20           0       0.623       0.000
  cso_10               OUTFALL      0.000    0.000     0  00:00           0           0       0.000 ltr
  Wastewater_Treatment_Plant OUTFALL      0.000    1.167     3  22:31           0        80.3       0.000
  cso_21b              OUTFALL      0.000    0.028     1  21:56           0        2.95       0.000
  cso_2b               OUTFALL      0.000    0.556     2  00:44           0        45.5       0.000
  j_1                  STORAGE      2.987    3.262     3  22:14        31.6        85.8      -0.712
  j_21                 STORAGE      0.666    0.666     5  01:15        6.75        6.75       0.171
  j_10                 STORAGE      2.596    2.596     3  22:15        24.6        24.6       0.389
  j_2                  STORAGE      8.066    8.108     5  01:15        75.4        81.5      -0.144
  j_20                 STORAGE      1.000    1.000     5  01:16        11.8        11.8       0.008
  
  
  **********************
  Node Surcharge Summary
  **********************
  
  No nodes were surcharged.
  
  
  *********************
  Node Flooding Summary
  *********************
  
  No nodes were flooded.
  
  
  **********************
  Storage Volume Summary
  **********************
  
  ------------------------------------------------------------------------------------------------
                         Average    Avg   Evap  Exfil     Maximum    Max    Time of Max    Maximum
                          Volume   Pcnt   Pcnt   Pcnt      Volume   Pcnt     Occurrence    Outflow
  Storage Unit           1000 m³   Full   Loss   Loss     1000 m³   Full    days hr:min        CMS
  ------------------------------------------------------------------------------------------------
  j_1                      0.214    6.0    0.0    0.0       3.172   89.0       4  21:55      2.980
  j_21                     0.046    3.5    0.0    0.0       1.181   90.3       5  01:20      0.666
  j_10                     1.679   14.4    0.0    0.0       8.046   69.0       5  08:45      0.306
  j_2                      0.378    2.4    0.0    0.0      12.374   78.2       5  01:20      6.338
  j_20                     1.222   44.6    0.0    0.0       2.180   79.5       5  01:20      0.951
  
  
  ***********************
  Outfall Loading Summary
  ***********************
  
  -----------------------------------------------------------
                         Flow       Avg       Max       Total
                         Freq      Flow      Flow      Volume
  Outfall Node           Pcnt       CMS       CMS    10^6 ltr
  -----------------------------------------------------------
  cso_1                  1.56     0.561     1.814       6.062
  cso_20                22.35     0.047     0.951       7.207
  cso_2a                 0.83     1.111     5.282       6.361
  cso_21a                0.38     0.238     0.596       0.623
  cso_10                 0.00     0.000     0.000       0.000
  Wastewater_Treatment_Plant  99.84     0.116     1.167      80.336
  cso_21b               99.09     0.004     0.028       2.945
  cso_2b                63.50     0.104     0.556      45.480
  -----------------------------------------------------------
  System                35.94     2.180     7.997     149.013
  
  
  ********************
  Link Flow Summary
  ********************
  
  -----------------------------------------------------------------------------
                                 Maximum  Time of Max   Maximum    Max/    Max/
                                  |Flow|   Occurrence   |Veloc|    Full    Full
  Link                 Type          CMS  days hr:min     m/sec    Flow   Depth
  -----------------------------------------------------------------------------
  p_20_2               PUMP        0.015     1  21:40              1.00
  WWTP_inlet           PUMP        1.167     3  22:31              1.00
  p_21_2               PUMP        0.042     4  20:22              1.00
  CSO_Pump_21          PUMP        0.028     1  21:56              1.00
  p10_1                PUMP        0.306     5  00:13              0.44
  p_2_1                PUMP        0.500     4  20:22              1.00
  CSO_Pump_2           PUMP        0.556     2  00:44              1.00
  cso_weir_1           WEIR        1.814     4  21:55                      0.09
  cso_weir_20          WEIR        0.951     5  01:20                      0.09
  cso_weir_2           WEIR        5.282     5  01:20                      0.16
  cso_weir_21          WEIR        0.596     5  01:20                      0.06
  cso_weir_10          WEIR        0.000     0  00:00                      0.00
  
  
  ***************************
  Flow Classification Summary
  ***************************
  
  -------------------------------------------------------------------------------------
                      Adjusted    ---------- Fraction of Time in Flow Class ---------- 
                       /Actual         Up    Down  Sub   Sup   Up    Down  Norm  Inlet 
  Conduit               Length    Dry  Dry   Dry   Crit  Crit  Crit  Crit  Ltd   Ctrl  
  -------------------------------------------------------------------------------------
  
  
  *************************
  Conduit Surcharge Summary
  *************************
  
  No conduits were surcharged.
  
  
  ***************
  Pumping Summary
  ***************
  
  ---------------------------------------------------------------------------------------------------------
                                                  Min       Avg       Max     Total     Power    % Time Off
                        Percent   Number of      Flow      Flow      Flow    Volume     Usage    Pump Curve
  Pump                 Utilized   Start-Ups       CMS       CMS       CMS  10^6 ltr     Kw-hr    Low   High
  ---------------------------------------------------------------------------------------------------------
  p_20_2                  43.75          12      0.00      0.01      0.01     2.894     17.30    0.0   45.6
  WWTP_inlet              99.85          22      0.00      0.12      1.17    80.336    190.64    0.0    0.0
  p_21_2                  99.87           2      0.00      0.00      0.04     3.173     14.31    0.0    0.0
  CSO_Pump_21             99.09           1      0.00      0.00      0.03     2.945     11.84    0.0    0.0
  p10_1                   46.86          28      0.00      0.08      0.31    24.471     49.55    0.0    0.0
  p_2_1                   43.35       29284      0.00      0.10      0.50    29.726     66.73    0.0    0.0
  CSO_Pump_2              63.50       29306      0.00      0.10      0.56    45.478     98.39    0.0    0.0
  

  Analysis begun on:  Wed Jun  5 17:09:41 2024
  Analysis ended on:  Wed Jun  5 17:11:03 2024
  Total elapsed time: 00:01:22