
  EPA STORM WATER MANAGEMENT MODEL - VERSION 5.2 (Build 5.2.4)
  PYSWMM TOOLKIT API - VERSION v1.0 (2023-11-27)
  ------------------------------------------------------------

  
  ****************
  Analysis Options
  ****************
  Flow Units ............... CMS
  Process Models:
    Rainfall/Runoff ........ YES
    RDII ................... NO
    Snowmelt ............... NO
    Groundwater ............ NO
    Flow Routing ........... YES
    Ponding Allowed ........ YES
    Water Quality .......... NO
  Infiltration Method ...... HORTON
  Flow Routing Method ...... DYNWAVE
  Surcharge Method ......... EXTRAN
  Starting Date ............ 01/01/2020 00:00:00
  Ending Date .............. 12/31/2020 00:00:00
  Antecedent Dry Days ...... 0.0
  Report Time Step ......... 00:15:00
  Wet Time Step ............ 00:00:15
  Dry Time Step ............ 01:00:00
  Routing Time Step ........ 8.00 sec
  Variable Time Step ....... YES
  Maximum Trials ........... 16
  Number of Threads ........ 2
  Head Tolerance ........... 0.000015 m
  
  
  **************************        Volume         Depth
  Runoff Quantity Continuity     hectare-m            mm
  **************************     ---------       -------
  Total Precipitation ......       208.746       651.546
  Evaporation Loss .........         0.000         0.000
  Infiltration Loss ........        20.671        64.520
  Surface Runoff ...........       187.943       586.614
  Final Storage ............         0.238         0.744
  Continuity Error (%) .....        -0.051
  
  
  **************************        Volume        Volume
  Flow Routing Continuity        hectare-m      10^6 ltr
  **************************     ---------     ---------
  Dry Weather Inflow .......        77.570       775.707
  Wet Weather Inflow .......       187.943      1879.445
  Groundwater Inflow .......         0.000         0.000
  RDII Inflow ..............         0.000         0.000
  External Inflow ..........         0.000         0.000
  External Outflow .........       252.411      2524.141
  Flooding Loss ............         0.000         0.000
  Evaporation Loss .........         0.000         0.000
  Exfiltration Loss ........         0.000         0.000
  Initial Stored Volume ....         0.000         0.000
  Final Stored Volume ......         0.317         3.166
  Continuity Error (%) .....         4.815
  
  
  *************************
  Highest Continuity Errors
  *************************
  Node j_2 (5.98%)
  
  
  ***************************
  Time-Step Critical Elements
  ***************************
  None
  
  
  ********************************
  Highest Flow Instability Indexes
  ********************************
  Link p_2_1 (8)
  Link WWTP_inlet (1)
  
  
  *********************************
  Most Frequent Nonconverging Nodes
  *********************************
  Convergence obtained at all time steps.
  
  
  *************************
  Routing Time Step Summary
  *************************
  Minimum Time Step           :     7.95 sec
  Average Time Step           :     8.00 sec
  Maximum Time Step           :     8.00 sec
  % of Time in Steady State   :     0.00
  Average Iterations per Step :     6.17
  % of Steps Not Converging   :     0.68
  Time Step Frequencies       :
      8.000 -  2.899 sec      :   100.00 %
      2.899 -  1.051 sec      :     0.00 %
      1.051 -  0.381 sec      :     0.00 %
      0.381 -  0.138 sec      :     0.00 %
      0.138 -  0.050 sec      :     0.00 %
  
  
  ***************************
  Subcatchment Runoff Summary
  ***************************
  
  ------------------------------------------------------------------------------------------------------------------------------
                            Total      Total      Total      Total     Imperv       Perv      Total       Total     Peak  Runoff
                           Precip      Runon       Evap      Infil     Runoff     Runoff     Runoff      Runoff   Runoff   Coeff
  Subcatchment                 mm         mm         mm         mm         mm         mm         mm    10^6 ltr      CMS
  ------------------------------------------------------------------------------------------------------------------------------
  sub_1a                   673.22       0.00       0.00     104.04     481.34      87.80     569.14      381.29     5.29   0.845
  sub_21a                  637.70       0.00       0.00      60.90     521.85      54.81     576.66       49.92     0.59   0.904
  sub_10a                  673.22       0.00       0.00      41.56     595.95      35.07     631.02      365.41     4.60   0.937
  sub_2a                   637.70       0.00       0.00      37.76     565.36      33.99     599.35      691.96     7.83   0.940
  sub_2b                   637.70       0.00       0.00     215.29     229.22     193.77     422.99       32.53     0.52   0.663
  sub_2c                   637.70       0.00       0.00      73.27     497.85      65.94     563.79       52.41     0.63   0.884
  sub_21b                  637.70       0.00       0.00       0.59     635.56       0.53     636.08       19.38     0.21   0.997
  sub_21c                  637.70       0.00       0.00     296.42      75.60     266.79     342.39        5.78     0.11   0.537
  sub_2d                   637.70       0.00       0.00      85.58     474.40      77.03     551.43       73.77     0.90   0.865
  sub_2e                   637.70       0.00       0.00      93.61     459.42      84.25     543.67       67.36     0.84   0.853
  sub_2f                   637.70       0.00       0.00      13.10     612.29      11.79     624.08       23.75     0.26   0.979
  sub_20a                  637.70       0.00       0.00      60.45     522.60      54.41     577.01      115.87     1.36   0.905
  
  
  ******************
  Node Depth Summary
  ******************
  
  ---------------------------------------------------------------------------------
                                 Average  Maximum  Maximum  Time of Max    Reported
                                   Depth    Depth      HGL   Occurrence   Max Depth
  Node                 Type       Meters   Meters   Meters  days hr:min      Meters
  ---------------------------------------------------------------------------------
  cso_1                OUTFALL      0.00     0.00     8.91     0  00:00        0.00
  cso_20               OUTFALL      0.00     0.00     8.30     0  00:00        0.00
  cso_2a               OUTFALL      0.00     0.00     8.30     0  00:00        0.00
  cso_21a              OUTFALL      0.00     0.00     8.93     0  00:00        0.00
  cso_10               OUTFALL      0.00     0.00     8.31     0  00:00        0.00
  Wastewater_Treatment_Plant OUTFALL      0.00     0.00     9.11     0  00:00        0.00
  cso_21b              OUTFALL      0.00     0.00     9.12     0  00:00        0.00
  cso_2b               OUTFALL      0.00     0.00     9.12     0  00:00        0.00
  j_1                  STORAGE      0.20     2.15    11.22   163  22:35        2.12
  j_21                 STORAGE      0.24     2.28    12.29   270  01:20        2.26
  j_10                 STORAGE      0.20     2.26    10.67   270  00:15        2.25
  j_2                  STORAGE      0.23     2.79    10.58   270  01:20        2.71
  j_20                 STORAGE      0.55     2.07    10.96   270  01:20        2.05
  
  
  *******************
  Node Inflow Summary
  *******************
  
  -------------------------------------------------------------------------------------------------
                                  Maximum  Maximum                  Lateral       Total        Flow
                                  Lateral    Total  Time of Max      Inflow      Inflow     Balance
                                   Inflow   Inflow   Occurrence      Volume      Volume       Error
  Node                 Type           CMS      CMS  days hr:min    10^6 ltr    10^6 ltr     Percent
  -------------------------------------------------------------------------------------------------
  cso_1                OUTFALL      0.000    4.120   163  22:35           0        16.9       0.000
  cso_20               OUTFALL      0.000    0.935   270  01:20           0        19.6       0.000
  cso_2a               OUTFALL      0.000    5.032   270  01:20           0        26.9       0.000
  cso_21a              OUTFALL      0.000    0.638   270  01:20           0        5.23       0.000
  cso_10               OUTFALL      0.000    0.296   270  00:15           0       0.124       0.000
  Wastewater_Treatment_Plant OUTFALL      0.000    1.167    32  10:16           0    2.28e+03       0.000
  cso_21b              OUTFALL      0.000    0.028    33  21:32           0        8.02       0.000
  cso_2b               OUTFALL      0.000    0.556    27  01:10           0         165       0.000
  j_1                  STORAGE      5.297    5.948   122  08:40         611    2.32e+03       0.863
  j_21                 STORAGE      0.907    0.907    50  19:05         130         130       0.428
  j_10                 STORAGE      4.598    4.598   122  08:40         382         382       1.711
  j_2                  STORAGE     10.981   10.981    50  19:05    1.27e+03    1.62e+03       6.356
  j_20                 STORAGE      1.361    1.361    50  19:05         268         268       1.491
  
  
  **********************
  Node Surcharge Summary
  **********************
  
  No nodes were surcharged.
  
  
  *********************
  Node Flooding Summary
  *********************
  
  No nodes were flooded.
  
  
  **********************
  Storage Volume Summary
  **********************
  
  ------------------------------------------------------------------------------------------------
                         Average    Avg   Evap  Exfil     Maximum    Max    Time of Max    Maximum
                          Volume   Pcnt   Pcnt   Pcnt      Volume   Pcnt     Occurrence    Outflow
  Storage Unit           1000 m³   Full   Loss   Loss     1000 m³   Full    days hr:min        CMS
  ------------------------------------------------------------------------------------------------
  j_1                      0.144    4.0    0.0    0.0       3.237   90.8     163  22:35      5.286
  j_21                     0.039    3.0    0.0    0.0       1.182   90.3     270  01:20      0.666
  j_10                     0.074    0.6    0.0    0.0      10.917   93.6     270  00:15      0.990
  j_2                      0.094    0.6    0.0    0.0      12.331   78.0     270  01:20      6.088
  j_20                     0.235    8.6    0.0    0.0       2.177   79.4     270  01:20      0.950
  
  
  ***********************
  Outfall Loading Summary
  ***********************
  
  -----------------------------------------------------------
                         Flow       Avg       Max       Total
                         Freq      Flow      Flow      Volume
  Outfall Node           Pcnt       CMS       CMS    10^6 ltr
  -----------------------------------------------------------
  cso_1                  0.09     0.629     4.120      16.852
  cso_20                 0.79     0.079     0.935      19.601
  cso_2a                 0.07     1.180     5.032      26.896
  cso_21a                0.14     0.119     0.638       5.227
  cso_10                 0.00     0.157     0.296       0.124
  Wastewater_Treatment_Plant  18.13     0.399     1.167    2282.865
  cso_21b                0.92     0.028     0.028       8.017
  cso_2b                 0.94     0.556     0.556     164.547
  -----------------------------------------------------------
  System                 2.63     3.146     8.012    2524.130
  
  
  ********************
  Link Flow Summary
  ********************
  
  -----------------------------------------------------------------------------
                                 Maximum  Time of Max   Maximum    Max/    Max/
                                  |Flow|   Occurrence   |Veloc|    Full    Full
  Link                 Type          CMS  days hr:min     m/sec    Flow   Depth
  -----------------------------------------------------------------------------
  p_20_2               PUMP        0.015     0  00:37              1.00
  WWTP_inlet           PUMP        1.167    32  10:16              1.00
  p_21_2               PUMP        0.042    27  03:05              1.00
  CSO_Pump_21          PUMP        0.028    33  21:32              1.00
  p10_1                PUMP        0.694    53  10:26              1.00
  p_2_1                PUMP        0.500    27  01:16              1.00
  CSO_Pump_2           PUMP        0.556    27  01:10              1.00
  cso_weir_1           WEIR        4.120   163  22:35                      0.16
  cso_weir_20          WEIR        0.935   270  01:20                      0.09
  cso_weir_2           WEIR        5.032   270  01:20                      0.16
  cso_weir_21          WEIR        0.638   270  01:20                      0.06
  cso_weir_10          WEIR        0.296   270  00:15                      0.02
  
  
  ***************************
  Flow Classification Summary
  ***************************
  
  -------------------------------------------------------------------------------------
                      Adjusted    ---------- Fraction of Time in Flow Class ---------- 
                       /Actual         Up    Down  Sub   Sup   Up    Down  Norm  Inlet 
  Conduit               Length    Dry  Dry   Dry   Crit  Crit  Crit  Crit  Ltd   Ctrl  
  -------------------------------------------------------------------------------------
  
  
  *************************
  Conduit Surcharge Summary
  *************************
  
  No conduits were surcharged.
  
  
  ***************
  Pumping Summary
  ***************
  
  ---------------------------------------------------------------------------------------------------------
                                                  Min       Avg       Max     Total     Power    % Time Off
                        Percent   Number of      Flow      Flow      Flow    Volume     Usage    Pump Curve
  Pump                 Utilized   Start-Ups       CMS       CMS       CMS  10^6 ltr     Kw-hr    Low   High
  ---------------------------------------------------------------------------------------------------------
  p_20_2                  51.52       22275      0.00      0.01      0.01   243.682   1117.45    0.0  100.0
  WWTP_inlet              18.13       30462      0.00      0.40      1.17  2282.866   4146.60    0.0    0.0
  p_21_2                  13.86        3207      0.00      0.03      0.04   115.903    695.81    0.0    0.0
  CSO_Pump_21              0.92          17      0.00      0.03      0.03     8.017     53.62    0.0    0.0
  p10_1                    4.32        3516      0.00      0.28      0.69   374.975   1099.32    0.0    0.0
  p_2_1                   11.87      204399      0.00      0.36      0.50  1334.814   3524.32    0.0    0.0
  CSO_Pump_2               0.94          38      0.00      0.56      0.56   164.547    345.05    0.0    0.0
  

  Analysis begun on:  Mon Jun 17 18:43:03 2024
  Analysis ended on:  Mon Jun 17 19:07:34 2024
  Total elapsed time: 00:24:31