
  EPA STORM WATER MANAGEMENT MODEL - VERSION 5.2 (Build 5.2.4)
  PYSWMM TOOLKIT API - VERSION v1.0 (2023-11-27)
  ------------------------------------------------------------

  
  ****************
  Analysis Options
  ****************
  Flow Units ............... CMS
  Process Models:
    Rainfall/Runoff ........ YES
    RDII ................... NO
    Snowmelt ............... NO
    Groundwater ............ NO
    Flow Routing ........... YES
    Ponding Allowed ........ YES
    Water Quality .......... NO
  Infiltration Method ...... HORTON
  Flow Routing Method ...... DYNWAVE
  Surcharge Method ......... EXTRAN
  Starting Date ............ 06/11/2020 00:00:00
  Ending Date .............. 06/16/2020 00:00:00
  Antecedent Dry Days ...... 0.0
  Report Time Step ......... 00:15:00
  Wet Time Step ............ 00:00:15
  Dry Time Step ............ 01:00:00
  Routing Time Step ........ 8.00 sec
  Variable Time Step ....... YES
  Maximum Trials ........... 16
  Number of Threads ........ 2
  Head Tolerance ........... 0.000015 m
  
  
  **************************        Volume         Depth
  Runoff Quantity Continuity     hectare-m            mm
  **************************     ---------       -------
  Total Precipitation ......        10.001        31.216
  Evaporation Loss .........         0.000         0.000
  Infiltration Loss ........         0.499         1.557
  Surface Runoff ...........         9.283        28.973
  Final Storage ............         0.233         0.726
  Continuity Error (%) .....        -0.126
  
  
  **************************        Volume        Volume
  Flow Routing Continuity        hectare-m      10^6 ltr
  **************************     ---------     ---------
  Dry Weather Inflow .......         1.063        10.626
  Wet Weather Inflow .......         9.278        92.780
  Groundwater Inflow .......         0.000         0.000
  RDII Inflow ..............         0.000         0.000
  External Inflow ..........         0.000         0.000
  External Outflow .........        10.157       101.572
  Flooding Loss ............         0.000         0.000
  Evaporation Loss .........         0.000         0.000
  Exfiltration Loss ........         0.000         0.000
  Initial Stored Volume ....         0.000         0.000
  Final Stored Volume ......         0.203         2.026
  Continuity Error (%) .....        -0.186
  
  
  ***************************
  Time-Step Critical Elements
  ***************************
  None
  
  
  ********************************
  Highest Flow Instability Indexes
  ********************************
  Link CSO_Pump_2 (116)
  Link p_2_1 (98)
  Link WWTP_inlet (67)
  Link p10_1 (2)
  
  
  *********************************
  Most Frequent Nonconverging Nodes
  *********************************
  Convergence obtained at all time steps.
  
  
  *************************
  Routing Time Step Summary
  *************************
  Minimum Time Step           :     3.95 sec
  Average Time Step           :     7.96 sec
  Maximum Time Step           :     8.00 sec
  % of Time in Steady State   :     0.00
  Average Iterations per Step :    12.10
  % of Steps Not Converging   :    65.81
  Time Step Frequencies       :
      8.000 -  2.899 sec      :   100.00 %
      2.899 -  1.051 sec      :     0.00 %
      1.051 -  0.381 sec      :     0.00 %
      0.381 -  0.138 sec      :     0.00 %
      0.138 -  0.050 sec      :     0.00 %
  
  
  ***************************
  Subcatchment Runoff Summary
  ***************************
  
  ------------------------------------------------------------------------------------------------------------------------------
                            Total      Total      Total      Total     Imperv       Perv      Total       Total     Peak  Runoff
                           Precip      Runon       Evap      Infil     Runoff     Runoff     Runoff      Runoff   Runoff   Coeff
  Subcatchment                 mm         mm         mm         mm         mm         mm         mm    10^6 ltr      CMS
  ------------------------------------------------------------------------------------------------------------------------------
  sub_1a                    18.94       0.00       0.00       1.73      12.99       3.67      16.65       11.16     5.02   0.879
  sub_21a                   39.06       0.00       0.00       1.85      31.62       5.23      36.84        3.19     0.37   0.943
  sub_10a                   18.94       0.00       0.00       0.69      15.94       1.46      17.41       10.08     4.36   0.919
  sub_2a                    39.06       0.00       0.00       1.15      33.96       3.24      37.20       42.94     4.97   0.952
  sub_2b                    39.06       0.00       0.00       6.54      13.80      18.47      32.27        2.48     0.32   0.826
  sub_2c                    39.06       0.00       0.00       2.23      29.66       6.29      35.94        3.34     0.40   0.920
  sub_21b                   39.06       0.00       0.00       0.02      38.01       0.05      38.06        1.16     0.13   0.974
  sub_21c                   39.06       0.00       0.00       9.01       4.58      25.43      30.01        0.51     0.07   0.768
  sub_2d                    39.06       0.00       0.00       2.60      28.13       7.34      35.47        4.75     0.57   0.908
  sub_2e                    39.06       0.00       0.00       2.84      27.43       8.03      35.46        4.39     0.53   0.908
  sub_2f                    39.06       0.00       0.00       0.40      37.00       1.12      38.13        1.45     0.16   0.976
  sub_20a                   39.06       0.00       0.00       1.84      31.56       5.19      36.74        7.38     0.86   0.941
  
  
  ******************
  Node Depth Summary
  ******************
  
  ---------------------------------------------------------------------------------
                                 Average  Maximum  Maximum  Time of Max    Reported
                                   Depth    Depth      HGL   Occurrence   Max Depth
  Node                 Type       Meters   Meters   Meters  days hr:min      Meters
  ---------------------------------------------------------------------------------
  cso_1                OUTFALL      0.00     0.00     8.91     0  00:00        0.00
  cso_20               OUTFALL      0.00     0.00     8.30     0  00:00        0.00
  cso_2a               OUTFALL      0.00     0.00     8.30     0  00:00        0.00
  cso_21a              OUTFALL      0.00     0.00     8.93     0  00:00        0.00
  cso_10               OUTFALL      0.00     0.00     8.31     0  00:00        0.00
  Wastewater_Treatment_Plant OUTFALL      0.00     0.00     9.11     0  00:00        0.00
  cso_21b              OUTFALL      0.00     0.00     9.12     0  00:00        0.00
  cso_2b               OUTFALL      0.00     0.00     9.12     0  00:00        0.00
  j_1                  STORAGE      0.12     2.06    11.13     1  23:30        2.06
  j_21                 STORAGE      0.25     2.25    12.26     1  23:15        2.25
  j_10                 STORAGE      0.38     1.27     9.68     2  01:55        1.27
  j_2                  STORAGE      0.32     2.68    10.47     3  09:30        2.68
  j_20                 STORAGE      1.22     2.06    10.95     3  09:10        2.06
  
  
  *******************
  Node Inflow Summary
  *******************
  
  -------------------------------------------------------------------------------------------------
                                  Maximum  Maximum                  Lateral       Total        Flow
                                  Lateral    Total  Time of Max      Inflow      Inflow     Balance
                                   Inflow   Inflow   Occurrence      Volume      Volume       Error
  Node                 Type           CMS      CMS  days hr:min    10^6 ltr    10^6 ltr     Percent
  -------------------------------------------------------------------------------------------------
  cso_1                OUTFALL      0.000    2.527     1  22:35           0        3.84       0.000
  cso_20               OUTFALL      0.000    0.810     3  09:10           0        5.97       0.000
  cso_2a               OUTFALL      0.000    2.604     3  09:30           0        8.01       0.000
  cso_21a              OUTFALL      0.000    0.397     1  23:15           0       0.856       0.000
  cso_10               OUTFALL      0.000    0.000     0  00:00           0           0       0.000 ltr
  Wastewater_Treatment_Plant OUTFALL      0.000    1.167     1  22:34           0        38.7       0.000
  cso_21b              OUTFALL      0.000    0.028     1  15:51           0        3.21       0.000
  cso_2b               OUTFALL      0.000    0.556     1  20:09           0          41       0.000
  j_1                  STORAGE      5.020    5.792     1  22:35        14.3        42.3      -0.755
  j_21                 STORAGE      0.572    0.572     2  20:55         5.6         5.6       0.273
  j_10                 STORAGE      4.364    4.364     1  22:35        10.3        10.3       0.433
  j_2                  STORAGE      6.945    6.970     2  20:55        63.7        66.8       0.094
  j_20                 STORAGE      0.861    0.861     2  20:55        9.45        9.45       0.074
  
  
  **********************
  Node Surcharge Summary
  **********************
  
  No nodes were surcharged.
  
  
  *********************
  Node Flooding Summary
  *********************
  
  No nodes were flooded.
  
  
  **********************
  Storage Volume Summary
  **********************
  
  ------------------------------------------------------------------------------------------------
                         Average    Avg   Evap  Exfil     Maximum    Max    Time of Max    Maximum
                          Volume   Pcnt   Pcnt   Pcnt      Volume   Pcnt     Occurrence    Outflow
  Storage Unit           1000 m³   Full   Loss   Loss     1000 m³   Full    days hr:min        CMS
  ------------------------------------------------------------------------------------------------
  j_1                      0.164    4.6    0.0    0.0       3.196   89.6       1  23:30      3.694
  j_21                     0.138   10.6    0.0    0.0       1.177   90.0       1  23:15      0.460
  j_10                     0.807    6.9    0.0    0.0       5.009   43.0       2  01:55      0.273
  j_2                      0.758    4.8    0.0    0.0      11.657   73.7       3  09:30      3.203
  j_20                     1.165   42.5    0.0    0.0       2.156   78.7       3  09:10      0.810
  
  
  ***********************
  Outfall Loading Summary
  ***********************
  
  -----------------------------------------------------------
                         Flow       Avg       Max       Total
                         Freq      Flow      Flow      Volume
  Outfall Node           Pcnt       CMS       CMS    10^6 ltr
  -----------------------------------------------------------
  cso_1                  1.29     0.687     2.527       3.837
  cso_20                32.02     0.043     0.810       5.966
  cso_2a                 1.93     0.964     2.604       8.014
  cso_21a                1.92     0.103     0.397       0.856
  cso_10                 0.00     0.000     0.000       0.000
  Wastewater_Treatment_Plant  99.56     0.090     1.167      38.736
  cso_21b              100.00     0.007     0.028       3.206
  cso_2b                66.68     0.142     0.556      40.955
  -----------------------------------------------------------
  System                37.93     2.036     6.280     101.571
  
  
  ********************
  Link Flow Summary
  ********************
  
  -----------------------------------------------------------------------------
                                 Maximum  Time of Max   Maximum    Max/    Max/
                                  |Flow|   Occurrence   |Veloc|    Full    Full
  Link                 Type          CMS  days hr:min     m/sec    Flow   Depth
  -----------------------------------------------------------------------------
  p_20_2               PUMP        0.015     1  15:50              1.00
  WWTP_inlet           PUMP        1.167     1  22:34              1.00
  p_21_2               PUMP        0.042     1  22:00              1.00
  CSO_Pump_21          PUMP        0.028     1  15:51              1.00
  p10_1                PUMP        0.273     2  01:55              0.39
  p_2_1                PUMP        0.500     1  21:09              1.00
  CSO_Pump_2           PUMP        0.556     1  20:09              1.00
  cso_weir_1           WEIR        2.527     1  22:35                      0.12
  cso_weir_20          WEIR        0.810     3  09:10                      0.08
  cso_weir_2           WEIR        2.604     3  09:30                      0.10
  cso_weir_21          WEIR        0.397     1  23:15                      0.04
  cso_weir_10          WEIR        0.000     0  00:00                      0.00
  
  
  ***************************
  Flow Classification Summary
  ***************************
  
  -------------------------------------------------------------------------------------
                      Adjusted    ---------- Fraction of Time in Flow Class ---------- 
                       /Actual         Up    Down  Sub   Sup   Up    Down  Norm  Inlet 
  Conduit               Length    Dry  Dry   Dry   Crit  Crit  Crit  Crit  Ltd   Ctrl  
  -------------------------------------------------------------------------------------
  
  
  *************************
  Conduit Surcharge Summary
  *************************
  
  No conduits were surcharged.
  
  
  ***************
  Pumping Summary
  ***************
  
  ---------------------------------------------------------------------------------------------------------
                                                  Min       Avg       Max     Total     Power    % Time Off
                        Percent   Number of      Flow      Flow      Flow    Volume     Usage    Pump Curve
  Pump                 Utilized   Start-Ups       CMS       CMS       CMS  10^6 ltr     Kw-hr    Low   High
  ---------------------------------------------------------------------------------------------------------
  p_20_2                  46.25           7      0.00      0.01      0.01     1.576      8.24    0.0   28.2
  WWTP_inlet              99.56          12      0.00      0.09      1.17    38.736    102.39    0.0    0.0
  p_21_2                  72.92          26      0.00      0.00      0.04     1.527      8.89    0.0    0.0
  CSO_Pump_21            100.00           1      0.00      0.01      0.03     3.206     15.81    0.0    0.0
  p10_1                   48.74           9      0.00      0.05      0.27    10.187     23.22    0.0    0.0
  p_2_1                   40.63       17618      0.00      0.10      0.50    17.801     30.63    0.0    0.0
  CSO_Pump_2              66.68       17613      0.00      0.14      0.56    40.958     91.60    0.0    0.0
  

  Analysis begun on:  Wed Jun  5 18:01:07 2024
  Analysis ended on:  Wed Jun  5 18:02:23 2024
  Total elapsed time: 00:01:16