
  EPA STORM WATER MANAGEMENT MODEL - VERSION 5.2 (Build 5.2.4)
  PYSWMM TOOLKIT API - VERSION v1.0 (2023-11-27)
  ------------------------------------------------------------

  
  ****************
  Analysis Options
  ****************
  Flow Units ............... CMS
  Process Models:
    Rainfall/Runoff ........ YES
    RDII ................... NO
    Snowmelt ............... NO
    Groundwater ............ NO
    Flow Routing ........... YES
    Ponding Allowed ........ YES
    Water Quality .......... NO
  Infiltration Method ...... HORTON
  Flow Routing Method ...... DYNWAVE
  Surcharge Method ......... EXTRAN
  Starting Date ............ 12/10/2020 00:00:00
  Ending Date .............. 12/20/2020 00:00:00
  Antecedent Dry Days ...... 0.0
  Report Time Step ......... 00:15:00
  Wet Time Step ............ 00:00:15
  Dry Time Step ............ 01:00:00
  Routing Time Step ........ 8.00 sec
  Variable Time Step ....... YES
  Maximum Trials ........... 16
  Number of Threads ........ 2
  Head Tolerance ........... 0.000015 m
  
  
  **************************        Volume         Depth
  Runoff Quantity Continuity     hectare-m            mm
  **************************     ---------       -------
  Total Precipitation ......         6.296        19.652
  Evaporation Loss .........         0.000         0.000
  Infiltration Loss ........         0.932         2.909
  Surface Runoff ...........         5.141        16.048
  Final Storage ............         0.227         0.708
  Continuity Error (%) .....        -0.065
  
  
  **************************        Volume        Volume
  Flow Routing Continuity        hectare-m      10^6 ltr
  **************************     ---------     ---------
  Dry Weather Inflow .......         2.125        21.252
  Wet Weather Inflow .......         5.141        51.411
  Groundwater Inflow .......         0.000         0.000
  RDII Inflow ..............         0.000         0.000
  External Inflow ..........         0.000         0.000
  External Outflow .........         4.669        46.687
  Flooding Loss ............         0.000         0.000
  Evaporation Loss .........         0.000         0.000
  Exfiltration Loss ........         0.000         0.000
  Initial Stored Volume ....         0.000         0.000
  Final Stored Volume ......         2.601        26.006
  Continuity Error (%) .....        -0.042
  
  
  ***************************
  Time-Step Critical Elements
  ***************************
  None
  
  
  ********************************
  Highest Flow Instability Indexes
  ********************************
  Link p_2_1 (24)
  Link CSO_Pump_2 (24)
  Link WWTP_inlet (14)
  
  
  *********************************
  Most Frequent Nonconverging Nodes
  *********************************
  Convergence obtained at all time steps.
  
  
  *************************
  Routing Time Step Summary
  *************************
  Minimum Time Step           :     3.95 sec
  Average Time Step           :     7.96 sec
  Maximum Time Step           :     8.00 sec
  % of Time in Steady State   :     0.00
  Average Iterations per Step :     4.01
  % of Steps Not Converging   :    13.11
  Time Step Frequencies       :
      8.000 -  2.899 sec      :   100.00 %
      2.899 -  1.051 sec      :     0.00 %
      1.051 -  0.381 sec      :     0.00 %
      0.381 -  0.138 sec      :     0.00 %
      0.138 -  0.050 sec      :     0.00 %
  
  
  ***************************
  Subcatchment Runoff Summary
  ***************************
  
  ------------------------------------------------------------------------------------------------------------------------------
                            Total      Total      Total      Total     Imperv       Perv      Total       Total     Peak  Runoff
                           Precip      Runon       Evap      Infil     Runoff     Runoff     Runoff      Runoff   Runoff   Coeff
  Subcatchment                 mm         mm         mm         mm         mm         mm         mm    10^6 ltr      CMS
  ------------------------------------------------------------------------------------------------------------------------------
  sub_1a                    19.39       0.00       0.00       4.29      13.30       1.24      14.53        9.74     1.30   0.750
  sub_21a                   19.82       0.00       0.00       2.94      15.85       0.66      16.51        1.43     0.13   0.833
  sub_10a                   19.39       0.00       0.00       1.71      16.34       0.49      16.83        9.75     1.14   0.868
  sub_2a                    19.82       0.00       0.00       1.82      16.86       0.41      17.27       19.94     1.75   0.871
  sub_2b                    19.82       0.00       0.00      10.39       6.86       2.32       9.19        0.71     0.11   0.463
  sub_2c                    19.82       0.00       0.00       3.54      14.57       0.79      15.36        1.43     0.14   0.775
  sub_21b                   19.82       0.00       0.00       0.03      18.75       0.01      18.76        0.57     0.05   0.946
  sub_21c                   19.82       0.00       0.00      14.31       2.29       3.20       5.49        0.09     0.02   0.277
  sub_2d                    19.82       0.00       0.00       4.13      13.74       0.92      14.67        1.96     0.20   0.740
  sub_2e                    19.82       0.00       0.00       4.52      13.51       1.01      14.53        1.80     0.19   0.733
  sub_2f                    19.82       0.00       0.00       0.63      18.48       0.14      18.63        0.71     0.06   0.940
  sub_20a                   19.82       0.00       0.00       2.92      15.77       0.65      16.42        3.30     0.30   0.828
  
  
  ******************
  Node Depth Summary
  ******************
  
  ---------------------------------------------------------------------------------
                                 Average  Maximum  Maximum  Time of Max    Reported
                                   Depth    Depth      HGL   Occurrence   Max Depth
  Node                 Type       Meters   Meters   Meters  days hr:min      Meters
  ---------------------------------------------------------------------------------
  cso_1                OUTFALL      0.00     0.00     8.91     0  00:00        0.00
  cso_20               OUTFALL      0.00     0.00     8.30     0  00:00        0.00
  cso_2a               OUTFALL      0.00     0.00     8.30     0  00:00        0.00
  cso_21a              OUTFALL      0.00     0.00     8.93     0  00:00        0.00
  cso_10               OUTFALL      0.00     0.00     8.31     0  00:00        0.00
  Wastewater_Treatment_Plant OUTFALL      0.00     0.00     9.11     0  00:00        0.00
  cso_21b              OUTFALL      0.00     0.00     9.12     0  00:00        0.00
  cso_2b               OUTFALL      0.00     0.00     9.12     0  00:00        0.00
  j_1                  STORAGE      1.39     1.98    11.05     4  19:25        1.96
  j_21                 STORAGE      1.46     2.20    12.21     5  11:35        2.19
  j_10                 STORAGE      1.16     1.87    10.28    10  00:00        1.87
  j_2                  STORAGE      1.99     2.57    10.36     4  08:30        2.57
  j_20                 STORAGE      1.50     1.95    10.84     4  07:30        1.95
  
  
  *******************
  Node Inflow Summary
  *******************
  
  -------------------------------------------------------------------------------------------------
                                  Maximum  Maximum                  Lateral       Total        Flow
                                  Lateral    Total  Time of Max      Inflow      Inflow     Balance
                                   Inflow   Inflow   Occurrence      Volume      Volume       Error
  Node                 Type           CMS      CMS  days hr:min    10^6 ltr    10^6 ltr     Percent
  -------------------------------------------------------------------------------------------------
  cso_1                OUTFALL      0.000    1.277     4  19:25           0        11.9       0.000
  cso_20               OUTFALL      0.000    0.146     4  07:30           0        4.87       0.000
  cso_2a               OUTFALL      0.000    0.738     4  08:30           0        24.1       0.000
  cso_21a              OUTFALL      0.000    0.104     5  11:35           0        2.17       0.000
  cso_10               OUTFALL      0.000    0.000     0  00:00           0           0       0.000 ltr
  Wastewater_Treatment_Plant OUTFALL      0.000    0.074     1  13:59           0        2.23       0.000
  cso_21b              OUTFALL      0.000    0.018     1  14:00           0       0.142       0.000
  cso_2b               OUTFALL      0.000    0.166     1  13:59           0        1.26       0.000
  j_1                  STORAGE      1.301    1.301     4  19:25          16        17.1      -0.794
  j_21                 STORAGE      0.203    0.203     4  07:30         3.6         3.6       0.011
  j_10                 STORAGE      1.144    1.144     4  19:25        10.2        10.2       0.019
  j_2                  STORAGE      2.456    2.456     4  07:30        35.4        36.2       0.285
  j_20                 STORAGE      0.307    0.307     4  07:30        7.46        7.46       0.019
  
  
  **********************
  Node Surcharge Summary
  **********************
  
  No nodes were surcharged.
  
  
  *********************
  Node Flooding Summary
  *********************
  
  No nodes were flooded.
  
  
  **********************
  Storage Volume Summary
  **********************
  
  ------------------------------------------------------------------------------------------------
                         Average    Avg   Evap  Exfil     Maximum    Max    Time of Max    Maximum
                          Volume   Pcnt   Pcnt   Pcnt      Volume   Pcnt     Occurrence    Outflow
  Storage Unit           1000 m³   Full   Loss   Loss     1000 m³   Full    days hr:min        CMS
  ------------------------------------------------------------------------------------------------
  j_1                      2.288   64.2    0.0    0.0       3.150   88.4       4  19:25      1.277
  j_21                     0.797   61.0    0.0    0.0       1.169   89.3       5  11:35      0.104
  j_10                     5.226   44.8    0.0    0.0      10.116   86.8      10  00:00      0.001
  j_2                      6.976   44.1    0.0    0.0      10.698   67.6       4  08:30      0.738
  j_20                     1.371   50.0    0.0    0.0       1.986   72.5       4  07:30      0.146
  
  
  ***********************
  Outfall Loading Summary
  ***********************
  
  -----------------------------------------------------------
                         Flow       Avg       Max       Total
                         Freq      Flow      Flow      Volume
  Outfall Node           Pcnt       CMS       CMS    10^6 ltr
  -----------------------------------------------------------
  cso_1                 62.87     0.022     1.277      11.949
  cso_20                57.01     0.010     0.146       4.875
  cso_2a                56.88     0.049     0.738      24.071
  cso_21a               56.01     0.004     0.104       2.166
  cso_10                 0.00     0.000     0.000       0.000
  Wastewater_Treatment_Plant  15.83     0.016     0.074       2.227
  cso_21b               15.83     0.001     0.018       0.142
  cso_2b                 7.97     0.018     0.166       1.256
  -----------------------------------------------------------
  System                34.05     0.121     1.763      46.686
  
  
  ********************
  Link Flow Summary
  ********************
  
  -----------------------------------------------------------------------------
                                 Maximum  Time of Max   Maximum    Max/    Max/
                                  |Flow|   Occurrence   |Veloc|    Full    Full
  Link                 Type          CMS  days hr:min     m/sec    Flow   Depth
  -----------------------------------------------------------------------------
  p_20_2               PUMP        0.015     1  13:53              1.00
  WWTP_inlet           PUMP        0.074     1  13:59              0.06
  p_21_2               PUMP        0.016     1  14:00              0.39
  CSO_Pump_21          PUMP        0.018     1  14:00              0.65
  p10_1                PUMP        0.001     0  09:00              0.00
  p_2_1                PUMP        0.118     1  13:59              0.24
  CSO_Pump_2           PUMP        0.166     1  13:59              0.30
  cso_weir_1           WEIR        1.277     4  19:25                      0.07
  cso_weir_20          WEIR        0.146     4  07:30                      0.03
  cso_weir_2           WEIR        0.738     4  08:30                      0.04
  cso_weir_21          WEIR        0.104     5  11:35                      0.02
  cso_weir_10          WEIR        0.000     0  00:00                      0.00
  
  
  ***************************
  Flow Classification Summary
  ***************************
  
  -------------------------------------------------------------------------------------
                      Adjusted    ---------- Fraction of Time in Flow Class ---------- 
                       /Actual         Up    Down  Sub   Sup   Up    Down  Norm  Inlet 
  Conduit               Length    Dry  Dry   Dry   Crit  Crit  Crit  Crit  Ltd   Ctrl  
  -------------------------------------------------------------------------------------
  
  
  *************************
  Conduit Surcharge Summary
  *************************
  
  No conduits were surcharged.
  
  
  ***************
  Pumping Summary
  ***************
  
  ---------------------------------------------------------------------------------------------------------
                                                  Min       Avg       Max     Total     Power    % Time Off
                        Percent   Number of      Flow      Flow      Flow    Volume     Usage    Pump Curve
  Pump                 Utilized   Start-Ups       CMS       CMS       CMS  10^6 ltr     Kw-hr    Low   High
  ---------------------------------------------------------------------------------------------------------
  p_20_2                  15.83           1      0.00      0.01      0.01     0.689      2.05    0.0    0.3
  WWTP_inlet              15.83           2      0.00      0.02      0.07     2.227      0.19    0.0    0.0
  p_21_2                  15.83           1      0.00      0.00      0.02     0.128      0.77    0.0    0.0
  CSO_Pump_21             15.83           1      0.00      0.00      0.02     0.142      0.35    0.0    0.0
  p10_1                   15.83           1      0.00      0.00      0.00     0.072      0.13    0.0    0.0
  p_2_1                    7.94        8564      0.00      0.01      0.12     0.997      3.48    0.0    0.0
  CSO_Pump_2               7.97        8530      0.00      0.02      0.17     1.256      4.52    0.0    0.0
  

  Analysis begun on:  Tue May 28 15:10:22 2024
  Analysis ended on:  Tue May 28 15:10:57 2024
  Total elapsed time: 00:00:35