
  EPA STORM WATER MANAGEMENT MODEL - VERSION 5.2 (Build 5.2.4)
  PYSWMM TOOLKIT API - VERSION v1.0 (2023-11-27)
  ------------------------------------------------------------

  
  ****************
  Analysis Options
  ****************
  Flow Units ............... CMS
  Process Models:
    Rainfall/Runoff ........ YES
    RDII ................... NO
    Snowmelt ............... NO
    Groundwater ............ NO
    Flow Routing ........... YES
    Ponding Allowed ........ YES
    Water Quality .......... NO
  Infiltration Method ...... HORTON
  Flow Routing Method ...... DYNWAVE
  Surcharge Method ......... EXTRAN
  Starting Date ............ 12/10/2020 00:00:00
  Ending Date .............. 12/20/2020 00:00:00
  Antecedent Dry Days ...... 0.0
  Report Time Step ......... 00:15:00
  Wet Time Step ............ 00:00:15
  Dry Time Step ............ 01:00:00
  Routing Time Step ........ 8.00 sec
  Variable Time Step ....... YES
  Maximum Trials ........... 16
  Number of Threads ........ 2
  Head Tolerance ........... 0.000015 m
  
  
  **************************        Volume         Depth
  Runoff Quantity Continuity     hectare-m            mm
  **************************     ---------       -------
  Total Precipitation ......         6.283        19.610
  Evaporation Loss .........         0.000         0.000
  Infiltration Loss ........         0.930         2.902
  Surface Runoff ...........         5.130        16.013
  Final Storage ............         0.227         0.708
  Continuity Error (%) .....        -0.065
  
  
  **************************        Volume        Volume
  Flow Routing Continuity        hectare-m      10^6 ltr
  **************************     ---------     ---------
  Dry Weather Inflow .......         1.692        16.915
  Wet Weather Inflow .......         5.130        51.300
  Groundwater Inflow .......         0.000         0.000
  RDII Inflow ..............         0.000         0.000
  External Inflow ..........         0.000         0.000
  External Outflow .........         6.715        67.153
  Flooding Loss ............         0.000         0.000
  Evaporation Loss .........         0.000         0.000
  Exfiltration Loss ........         0.000         0.000
  Initial Stored Volume ....         0.000         0.000
  Final Stored Volume ......         0.190         1.896
  Continuity Error (%) .....        -1.222
  
  
  *************************
  Highest Continuity Errors
  *************************
  Node j_1 (-2.02%)
  
  
  ***************************
  Time-Step Critical Elements
  ***************************
  None
  
  
  ********************************
  Highest Flow Instability Indexes
  ********************************
  Link CSO_Pump_2 (126)
  Link p_2_1 (97)
  Link WWTP_inlet (69)
  Link p10_1 (2)
  
  
  *********************************
  Most Frequent Nonconverging Nodes
  *********************************
  Convergence obtained at all time steps.
  
  
  *************************
  Routing Time Step Summary
  *************************
  Minimum Time Step           :     3.95 sec
  Average Time Step           :     7.96 sec
  Maximum Time Step           :     8.00 sec
  % of Time in Steady State   :     0.00
  Average Iterations per Step :    13.55
  % of Steps Not Converging   :    75.05
  Time Step Frequencies       :
      8.000 -  2.899 sec      :   100.00 %
      2.899 -  1.051 sec      :     0.00 %
      1.051 -  0.381 sec      :     0.00 %
      0.381 -  0.138 sec      :     0.00 %
      0.138 -  0.050 sec      :     0.00 %
  
  
  ***************************
  Subcatchment Runoff Summary
  ***************************
  
  ------------------------------------------------------------------------------------------------------------------------------
                            Total      Total      Total      Total     Imperv       Perv      Total       Total     Peak  Runoff
                           Precip      Runon       Evap      Infil     Runoff     Runoff     Runoff      Runoff   Runoff   Coeff
  Subcatchment                 mm         mm         mm         mm         mm         mm         mm    10^6 ltr      CMS
  ------------------------------------------------------------------------------------------------------------------------------
  sub_1a                    19.36       0.00       0.00       4.28      13.28       1.24      14.51        9.72     1.30   0.750
  sub_21a                   19.77       0.00       0.00       2.93      15.81       0.66      16.47        1.43     0.13   0.833
  sub_10a                   19.36       0.00       0.00       1.71      16.31       0.49      16.80        9.73     1.14   0.868
  sub_2a                    19.77       0.00       0.00       1.82      16.82       0.41      17.22       19.88     1.75   0.871
  sub_2b                    19.77       0.00       0.00      10.36       6.84       2.32       9.17        0.71     0.11   0.464
  sub_2c                    19.77       0.00       0.00       3.53      14.53       0.79      15.32        1.42     0.14   0.775
  sub_21b                   19.77       0.00       0.00       0.03      18.70       0.01      18.71        0.57     0.05   0.946
  sub_21c                   19.77       0.00       0.00      14.27       2.29       3.20       5.49        0.09     0.02   0.278
  sub_2d                    19.77       0.00       0.00       4.12      13.71       0.92      14.63        1.96     0.20   0.740
  sub_2e                    19.77       0.00       0.00       4.51      13.48       1.01      14.49        1.80     0.19   0.733
  sub_2f                    19.77       0.00       0.00       0.63      18.44       0.14      18.58        0.71     0.06   0.940
  sub_20a                   19.77       0.00       0.00       2.91      15.72       0.65      16.38        3.29     0.30   0.828
  
  
  ******************
  Node Depth Summary
  ******************
  
  ---------------------------------------------------------------------------------
                                 Average  Maximum  Maximum  Time of Max    Reported
                                   Depth    Depth      HGL   Occurrence   Max Depth
  Node                 Type       Meters   Meters   Meters  days hr:min      Meters
  ---------------------------------------------------------------------------------
  cso_1                OUTFALL      0.00     0.00     8.91     0  00:00        0.00
  cso_20               OUTFALL      0.00     0.00     8.30     0  00:00        0.00
  cso_2a               OUTFALL      0.00     0.00     8.30     0  00:00        0.00
  cso_21a              OUTFALL      0.00     0.00     8.93     0  00:00        0.00
  cso_10               OUTFALL      0.00     0.00     8.31     0  00:00        0.00
  Wastewater_Treatment_Plant OUTFALL      0.00     0.00     9.11     0  00:00        0.00
  cso_21b              OUTFALL      0.00     0.00     9.12     0  00:00        0.00
  cso_2b               OUTFALL      0.00     0.00     9.12     0  00:00        0.00
  j_1                  STORAGE      0.07     1.22    10.29     4  20:35        1.18
  j_21                 STORAGE      0.01     0.33    10.34     4  07:35        0.32
  j_10                 STORAGE      0.16     0.60     9.01     3  16:15        0.60
  j_2                  STORAGE      0.07     1.42     9.21     2  19:25        1.37
  j_20                 STORAGE      1.02     1.94    10.83     5  11:40        1.94
  
  
  *******************
  Node Inflow Summary
  *******************
  
  -------------------------------------------------------------------------------------------------
                                  Maximum  Maximum                  Lateral       Total        Flow
                                  Lateral    Total  Time of Max      Inflow      Inflow     Balance
                                   Inflow   Inflow   Occurrence      Volume      Volume       Error
  Node                 Type           CMS      CMS  days hr:min    10^6 ltr    10^6 ltr     Percent
  -------------------------------------------------------------------------------------------------
  cso_1                OUTFALL      0.000    0.000     0  00:00           0           0       0.000 ltr
  cso_20               OUTFALL      0.000    0.116     5  11:40           0        1.59       0.000
  cso_2a               OUTFALL      0.000    0.000     0  00:00           0           0       0.000 ltr
  cso_21a              OUTFALL      0.000    0.000     0  00:00           0           0       0.000 ltr
  cso_10               OUTFALL      0.000    0.000     0  00:00           0           0       0.000 ltr
  Wastewater_Treatment_Plant OUTFALL      0.000    0.528     4  20:35           0        39.5       0.000
  cso_21b              OUTFALL      0.000    0.028     1  14:09           0        1.72       0.000
  cso_2b               OUTFALL      0.000    0.516     2  19:25           0        24.3       0.000
  j_1                  STORAGE      1.301    1.907     4  19:25        14.7        38.7      -1.980
  j_21                 STORAGE      0.203    0.203     4  07:30        3.29        3.29       0.429
  j_10                 STORAGE      1.144    1.144     4  19:25        10.1        10.1       0.844
  j_2                  STORAGE      2.456    2.481     4  07:30        33.5        38.2      -0.407
  j_20                 STORAGE      0.307    0.307     4  07:30         6.6         6.6       0.102
  
  
  **********************
  Node Surcharge Summary
  **********************
  
  No nodes were surcharged.
  
  
  *********************
  Node Flooding Summary
  *********************
  
  No nodes were flooded.
  
  
  **********************
  Storage Volume Summary
  **********************
  
  ------------------------------------------------------------------------------------------------
                         Average    Avg   Evap  Exfil     Maximum    Max    Time of Max    Maximum
                          Volume   Pcnt   Pcnt   Pcnt      Volume   Pcnt     Occurrence    Outflow
  Storage Unit           1000 m³   Full   Loss   Loss     1000 m³   Full    days hr:min        CMS
  ------------------------------------------------------------------------------------------------
  j_1                      0.058    1.6    0.0    0.0       1.982   55.6       4  20:35      0.528
  j_21                     0.000    0.0    0.0    0.0       0.037    2.8       4  07:35      0.053
  j_10                     0.061    0.5    0.0    0.0       0.532    4.6       3  16:15      0.272
  j_2                      0.004    0.0    0.0    0.0       0.567    3.6       2  19:25      0.858
  j_20                     0.759   27.7    0.0    0.0       1.972   72.0       5  11:40      0.116
  
  
  ***********************
  Outfall Loading Summary
  ***********************
  
  -----------------------------------------------------------
                         Flow       Avg       Max       Total
                         Freq      Flow      Flow      Volume
  Outfall Node           Pcnt       CMS       CMS    10^6 ltr
  -----------------------------------------------------------
  cso_1                  0.00     0.000     0.000       0.000
  cso_20                13.80     0.017     0.116       1.588
  cso_2a                 0.00     0.000     0.000       0.000
  cso_21a                0.00     0.000     0.000       0.000
  cso_10                 0.00     0.000     0.000       0.000
  Wastewater_Treatment_Plant  99.96     0.059     0.528      39.532
  cso_21b              100.00     0.003     0.028       1.722
  cso_2b                64.58     0.056     0.516      24.310
  -----------------------------------------------------------
  System                34.79     0.134     0.977      67.152
  
  
  ********************
  Link Flow Summary
  ********************
  
  -----------------------------------------------------------------------------
                                 Maximum  Time of Max   Maximum    Max/    Max/
                                  |Flow|   Occurrence   |Veloc|    Full    Full
  Link                 Type          CMS  days hr:min     m/sec    Flow   Depth
  -----------------------------------------------------------------------------
  p_20_2               PUMP        0.015     1  13:53              1.00
  WWTP_inlet           PUMP        0.528     4  20:35              0.45
  p_21_2               PUMP        0.025     1  14:09              0.60
  CSO_Pump_21          PUMP        0.028     1  14:09              1.00
  p10_1                PUMP        0.272     1  17:15              0.39
  p_2_1                PUMP        0.354     2  19:30              0.71
  CSO_Pump_2           PUMP        0.516     2  19:25              0.93
  cso_weir_1           WEIR        0.000     0  00:00                      0.00
  cso_weir_20          WEIR        0.116     5  11:40                      0.02
  cso_weir_2           WEIR        0.000     0  00:00                      0.00
  cso_weir_21          WEIR        0.000     0  00:00                      0.00
  cso_weir_10          WEIR        0.000     0  00:00                      0.00
  
  
  ***************************
  Flow Classification Summary
  ***************************
  
  -------------------------------------------------------------------------------------
                      Adjusted    ---------- Fraction of Time in Flow Class ---------- 
                       /Actual         Up    Down  Sub   Sup   Up    Down  Norm  Inlet 
  Conduit               Length    Dry  Dry   Dry   Crit  Crit  Crit  Crit  Ltd   Ctrl  
  -------------------------------------------------------------------------------------
  
  
  *************************
  Conduit Surcharge Summary
  *************************
  
  No conduits were surcharged.
  
  
  ***************
  Pumping Summary
  ***************
  
  ---------------------------------------------------------------------------------------------------------
                                                  Min       Avg       Max     Total     Power    % Time Off
                        Percent   Number of      Flow      Flow      Flow    Volume     Usage    Pump Curve
  Pump                 Utilized   Start-Ups       CMS       CMS       CMS  10^6 ltr     Kw-hr    Low   High
  ---------------------------------------------------------------------------------------------------------
  p_20_2                  51.34           8      0.00      0.01      0.01     3.159     15.85    0.0   40.0
  WWTP_inlet              99.96          35      0.00      0.06      0.53    39.532     36.33    0.0    0.0
  p_21_2                 100.00           1      0.00      0.00      0.03     1.550      8.71    0.0    0.0
  CSO_Pump_21            100.00           1      0.00      0.00      0.03     1.722      4.53    0.0    0.0
  p10_1                   44.07          46      0.00      0.03      0.27     9.950     26.28    0.0    0.0
  p_2_1                   35.87       26735      0.00      0.06      0.35    14.077     48.05    0.0    0.0
  CSO_Pump_2              64.58       26764      0.00      0.06      0.52    24.312     68.25    0.0    0.0
  

  Analysis begun on:  Wed Jun  5 13:38:29 2024
  Analysis ended on:  Wed Jun  5 13:40:13 2024
  Total elapsed time: 00:01:44