
  EPA STORM WATER MANAGEMENT MODEL - VERSION 5.2 (Build 5.2.4)
  PYSWMM TOOLKIT API - VERSION v1.0 (2023-11-27)
  ------------------------------------------------------------

  
  ****************
  Analysis Options
  ****************
  Flow Units ............... CMS
  Process Models:
    Rainfall/Runoff ........ YES
    RDII ................... NO
    Snowmelt ............... NO
    Groundwater ............ NO
    Flow Routing ........... YES
    Ponding Allowed ........ YES
    Water Quality .......... NO
  Infiltration Method ...... HORTON
  Flow Routing Method ...... DYNWAVE
  Surcharge Method ......... EXTRAN
  Starting Date ............ 02/08/2020 00:00:00
  Ending Date .............. 02/12/2020 00:00:00
  Antecedent Dry Days ...... 0.0
  Report Time Step ......... 00:15:00
  Wet Time Step ............ 00:00:15
  Dry Time Step ............ 01:00:00
  Routing Time Step ........ 8.00 sec
  Variable Time Step ....... YES
  Maximum Trials ........... 16
  Number of Threads ........ 2
  Head Tolerance ........... 0.000015 m
  
  
  **************************        Volume         Depth
  Runoff Quantity Continuity     hectare-m            mm
  **************************     ---------       -------
  Total Precipitation ......         5.155        16.090
  Evaporation Loss .........         0.000         0.000
  Infiltration Loss ........         0.517         1.613
  Surface Runoff ...........         4.417        13.788
  Final Storage ............         0.227         0.708
  Continuity Error (%) .....        -0.122
  
  
  **************************        Volume        Volume
  Flow Routing Continuity        hectare-m      10^6 ltr
  **************************     ---------     ---------
  Dry Weather Inflow .......         0.850         8.501
  Wet Weather Inflow .......         4.413        44.129
  Groundwater Inflow .......         0.000         0.000
  RDII Inflow ..............         0.000         0.000
  External Inflow ..........         0.000         0.000
  External Outflow .........         5.181        51.810
  Flooding Loss ............         0.000         0.000
  Evaporation Loss .........         0.000         0.000
  Exfiltration Loss ........         0.000         0.000
  Initial Stored Volume ....         0.000         0.000
  Final Stored Volume ......         0.171         1.714
  Continuity Error (%) .....        -1.698
  
  
  *************************
  Highest Continuity Errors
  *************************
  Node j_2 (-2.05%)
  Node j_1 (-1.14%)
  
  
  ***************************
  Time-Step Critical Elements
  ***************************
  None
  
  
  ********************************
  Highest Flow Instability Indexes
  ********************************
  Link CSO_Pump_2 (114)
  Link p_2_1 (112)
  Link WWTP_inlet (81)
  Link p10_1 (1)
  
  
  *********************************
  Most Frequent Nonconverging Nodes
  *********************************
  Convergence obtained at all time steps.
  
  
  *************************
  Routing Time Step Summary
  *************************
  Minimum Time Step           :     3.95 sec
  Average Time Step           :     7.96 sec
  Maximum Time Step           :     8.00 sec
  % of Time in Steady State   :     0.00
  Average Iterations per Step :    12.04
  % of Steps Not Converging   :    65.56
  Time Step Frequencies       :
      8.000 -  2.899 sec      :   100.00 %
      2.899 -  1.051 sec      :     0.00 %
      1.051 -  0.381 sec      :     0.00 %
      0.381 -  0.138 sec      :     0.00 %
      0.138 -  0.050 sec      :     0.00 %
  
  
  ***************************
  Subcatchment Runoff Summary
  ***************************
  
  ------------------------------------------------------------------------------------------------------------------------------
                            Total      Total      Total      Total     Imperv       Perv      Total       Total     Peak  Runoff
                           Precip      Runon       Evap      Infil     Runoff     Runoff     Runoff      Runoff   Runoff   Coeff
  Subcatchment                 mm         mm         mm         mm         mm         mm         mm    10^6 ltr      CMS
  ------------------------------------------------------------------------------------------------------------------------------
  sub_1a                    11.16       0.00       0.00       1.93       7.41       1.25       8.66        5.80     2.30   0.776
  sub_21a                   19.24       0.00       0.00       1.85      15.37       1.65      17.02        1.47     0.38   0.885
  sub_10a                   11.16       0.00       0.00       0.77       9.05       0.50       9.55        5.53     2.00   0.856
  sub_2a                    19.24       0.00       0.00       1.15      16.35       1.02      17.38       20.06     5.06   0.903
  sub_2b                    19.24       0.00       0.00       6.54       6.66       5.83      12.49        0.96     0.33   0.649
  sub_2c                    19.24       0.00       0.00       2.23      14.12       1.98      16.10        1.50     0.41   0.837
  sub_21b                   19.24       0.00       0.00       0.02      18.18       0.02      18.19        0.55     0.13   0.946
  sub_21c                   19.24       0.00       0.00       9.00       2.22       8.03      10.25        0.17     0.07   0.533
  sub_2d                    19.24       0.00       0.00       2.60      13.31       2.32      15.63        2.09     0.58   0.812
  sub_2e                    19.24       0.00       0.00       2.84      13.09       2.53      15.63        1.94     0.54   0.812
  sub_2f                    19.24       0.00       0.00       0.40      17.93       0.35      18.28        0.70     0.17   0.950
  sub_20a                   19.24       0.00       0.00       1.84      15.29       1.64      16.93        3.40     0.88   0.880
  
  
  ******************
  Node Depth Summary
  ******************
  
  ---------------------------------------------------------------------------------
                                 Average  Maximum  Maximum  Time of Max    Reported
                                   Depth    Depth      HGL   Occurrence   Max Depth
  Node                 Type       Meters   Meters   Meters  days hr:min      Meters
  ---------------------------------------------------------------------------------
  cso_1                OUTFALL      0.00     0.00     8.91     0  00:00        0.00
  cso_20               OUTFALL      0.00     0.00     8.30     0  00:00        0.00
  cso_2a               OUTFALL      0.00     0.00     8.30     0  00:00        0.00
  cso_21a              OUTFALL      0.00     0.00     8.93     0  00:00        0.00
  cso_10               OUTFALL      0.00     0.00     8.31     0  00:00        0.00
  Wastewater_Treatment_Plant OUTFALL      0.00     0.00     9.11     0  00:00        0.00
  cso_21b              OUTFALL      0.00     0.00     9.12     0  00:00        0.00
  cso_2b               OUTFALL      0.00     0.00     9.12     0  00:00        0.00
  j_1                  STORAGE      0.08     1.40    10.47     1  21:25        1.40
  j_21                 STORAGE      0.05     0.84    10.85     2  22:00        0.84
  j_10                 STORAGE      0.24     0.88     9.29     1  21:30        0.88
  j_2                  STORAGE      0.37     2.23    10.02     3  04:00        2.23
  j_20                 STORAGE      0.97     2.01    10.90     3  17:55        2.00
  
  
  *******************
  Node Inflow Summary
  *******************
  
  -------------------------------------------------------------------------------------------------
                                  Maximum  Maximum                  Lateral       Total        Flow
                                  Lateral    Total  Time of Max      Inflow      Inflow     Balance
                                   Inflow   Inflow   Occurrence      Volume      Volume       Error
  Node                 Type           CMS      CMS  days hr:min    10^6 ltr    10^6 ltr     Percent
  -------------------------------------------------------------------------------------------------
  cso_1                OUTFALL      0.000    0.000     0  00:00           0           0       0.000 ltr
  cso_20               OUTFALL      0.000    0.458     3  17:55           0        1.03       0.000
  cso_2a               OUTFALL      0.000    0.001     2  06:25           0    6.64e-06       0.000 ltr
  cso_21a              OUTFALL      0.000    0.000     0  00:00           0           0       0.000 ltr
  cso_10               OUTFALL      0.000    0.000     0  00:00           0           0       0.000 ltr
  Wastewater_Treatment_Plant OUTFALL      0.000    0.722     1  21:25           0          26       0.000
  cso_21b              OUTFALL      0.000    0.028     1  16:34           0        1.49       0.000
  cso_2b               OUTFALL      0.000    0.556     1  22:07           0        23.3       0.000
  j_1                  STORAGE      2.298    2.589     1  21:20        8.31        25.7      -1.123
  j_21                 STORAGE      0.585    0.585     2  21:30         2.8         2.8       0.973
  j_10                 STORAGE      1.999    1.999     1  21:20         5.7         5.7       1.324
  j_2                  STORAGE      7.093    7.133     2  21:30        30.8        34.4      -2.007
  j_20                 STORAGE      0.880    0.880     2  21:30        5.06        5.06       0.043
  
  
  **********************
  Node Surcharge Summary
  **********************
  
  No nodes were surcharged.
  
  
  *********************
  Node Flooding Summary
  *********************
  
  No nodes were flooded.
  
  
  **********************
  Storage Volume Summary
  **********************
  
  ------------------------------------------------------------------------------------------------
                         Average    Avg   Evap  Exfil     Maximum    Max    Time of Max    Maximum
                          Volume   Pcnt   Pcnt   Pcnt      Volume   Pcnt     Occurrence    Outflow
  Storage Unit           1000 m³   Full   Loss   Loss     1000 m³   Full    days hr:min        CMS
  ------------------------------------------------------------------------------------------------
  j_1                      0.074    2.1    0.0    0.0       2.462   69.1       1  21:25      0.722
  j_21                     0.014    1.1    0.0    0.0       0.480   36.7       2  22:00      0.065
  j_10                     0.250    2.1    0.0    0.0       1.520   13.0       1  21:30      0.272
  j_2                      0.587    3.7    0.0    0.0       6.426   40.6       3  04:00      1.056
  j_20                     0.810   29.6    0.0    0.0       2.082   76.0       3  17:55      0.473
  
  
  ***********************
  Outfall Loading Summary
  ***********************
  
  -----------------------------------------------------------
                         Flow       Avg       Max       Total
                         Freq      Flow      Flow      Volume
  Outfall Node           Pcnt       CMS       CMS    10^6 ltr
  -----------------------------------------------------------
  cso_1                  0.00     0.000     0.000       0.000
  cso_20                 3.99     0.075     0.458       1.030
  cso_2a                 0.00     0.001     0.001       0.000
  cso_21a                0.00     0.000     0.000       0.000
  cso_10                 0.00     0.000     0.000       0.000
  Wastewater_Treatment_Plant  99.44     0.076     0.722      26.025
  cso_21b               97.13     0.004     0.028       1.491
  cso_2b                51.37     0.131     0.556      23.265
  -----------------------------------------------------------
  System                31.49     0.287     1.374      51.810
  
  
  ********************
  Link Flow Summary
  ********************
  
  -----------------------------------------------------------------------------
                                 Maximum  Time of Max   Maximum    Max/    Max/
                                  |Flow|   Occurrence   |Veloc|    Full    Full
  Link                 Type          CMS  days hr:min     m/sec    Flow   Depth
  -----------------------------------------------------------------------------
  p_20_2               PUMP        0.015     0  16:55              1.00
  WWTP_inlet           PUMP        0.722     1  21:25              0.62
  p_21_2               PUMP        0.037     2  22:00              0.90
  CSO_Pump_21          PUMP        0.028     1  16:34              1.00
  p10_1                PUMP        0.272     1  17:38              0.39
  p_2_1                PUMP        0.500     2  21:58              1.00
  CSO_Pump_2           PUMP        0.556     1  22:07              1.00
  cso_weir_1           WEIR        0.000     0  00:00                      0.00
  cso_weir_20          WEIR        0.458     3  17:55                      0.05
  cso_weir_2           WEIR        0.001     2  06:25                      0.00
  cso_weir_21          WEIR        0.000     0  00:00                      0.00
  cso_weir_10          WEIR        0.000     0  00:00                      0.00
  
  
  ***************************
  Flow Classification Summary
  ***************************
  
  -------------------------------------------------------------------------------------
                      Adjusted    ---------- Fraction of Time in Flow Class ---------- 
                       /Actual         Up    Down  Sub   Sup   Up    Down  Norm  Inlet 
  Conduit               Length    Dry  Dry   Dry   Crit  Crit  Crit  Crit  Ltd   Ctrl  
  -------------------------------------------------------------------------------------
  
  
  *************************
  Conduit Surcharge Summary
  *************************
  
  No conduits were surcharged.
  
  
  ***************
  Pumping Summary
  ***************
  
  ---------------------------------------------------------------------------------------------------------
                                                  Min       Avg       Max     Total     Power    % Time Off
                        Percent   Number of      Flow      Flow      Flow    Volume     Usage    Pump Curve
  Pump                 Utilized   Start-Ups       CMS       CMS       CMS  10^6 ltr     Kw-hr    Low   High
  ---------------------------------------------------------------------------------------------------------
  p_20_2                  73.96          24      0.00      0.01      0.01     2.404     10.64    0.0   43.4
  WWTP_inlet              99.44          20      0.00      0.08      0.72    26.025     25.13    0.0    0.0
  p_21_2                  96.87           3      0.00      0.00      0.04     1.283      5.13    0.0    0.0
  CSO_Pump_21             97.14           2      0.00      0.00      0.03     1.491      4.87    0.0    0.0
  p10_1                   62.19          26      0.00      0.03      0.27     5.540      8.18    0.0    0.0
  p_2_1                   44.81       15918      0.00      0.08      0.50    11.879     26.52    0.0    0.0
  CSO_Pump_2              51.38       15895      0.00      0.13      0.56    23.264     39.11    0.0    0.0
  

  Analysis begun on:  Thu Jun  6 11:20:50 2024
  Analysis ended on:  Thu Jun  6 11:21:44 2024
  Total elapsed time: 00:00:54