
  EPA STORM WATER MANAGEMENT MODEL - VERSION 5.2 (Build 5.2.4)
  PYSWMM TOOLKIT API - VERSION v1.0 (2023-11-27)
  ------------------------------------------------------------

  
  ****************
  Analysis Options
  ****************
  Flow Units ............... CMS
  Process Models:
    Rainfall/Runoff ........ YES
    RDII ................... NO
    Snowmelt ............... NO
    Groundwater ............ NO
    Flow Routing ........... YES
    Ponding Allowed ........ YES
    Water Quality .......... NO
  Infiltration Method ...... HORTON
  Flow Routing Method ...... DYNWAVE
  Surcharge Method ......... EXTRAN
  Starting Date ............ 02/08/2020 00:00:00
  Ending Date .............. 02/12/2020 00:00:00
  Antecedent Dry Days ...... 0.0
  Report Time Step ......... 00:15:00
  Wet Time Step ............ 00:00:15
  Dry Time Step ............ 01:00:00
  Routing Time Step ........ 8.00 sec
  Variable Time Step ....... YES
  Maximum Trials ........... 16
  Number of Threads ........ 2
  Head Tolerance ........... 0.000015 m
  
  
  **************************        Volume         Depth
  Runoff Quantity Continuity     hectare-m            mm
  **************************     ---------       -------
  Total Precipitation ......         5.155        16.090
  Evaporation Loss .........         0.000         0.000
  Infiltration Loss ........         0.517         1.613
  Surface Runoff ...........         4.417        13.788
  Final Storage ............         0.227         0.708
  Continuity Error (%) .....        -0.122
  
  
  **************************        Volume        Volume
  Flow Routing Continuity        hectare-m      10^6 ltr
  **************************     ---------     ---------
  Dry Weather Inflow .......         0.850         8.501
  Wet Weather Inflow .......         4.413        44.129
  Groundwater Inflow .......         0.000         0.000
  RDII Inflow ..............         0.000         0.000
  External Inflow ..........         0.000         0.000
  External Outflow .........         3.130        31.305
  Flooding Loss ............         0.000         0.000
  Evaporation Loss .........         0.000         0.000
  Exfiltration Loss ........         0.000         0.000
  Initial Stored Volume ....         0.000         0.000
  Final Stored Volume ......         2.149        21.492
  Continuity Error (%) .....        -0.317
  
  
  *************************
  Highest Continuity Errors
  *************************
  Node j_1 (-1.64%)
  
  
  ***************************
  Time-Step Critical Elements
  ***************************
  None
  
  
  ********************************
  Highest Flow Instability Indexes
  ********************************
  Link p_2_1 (63)
  Link CSO_Pump_2 (63)
  Link WWTP_inlet (39)
  
  
  *********************************
  Most Frequent Nonconverging Nodes
  *********************************
  Convergence obtained at all time steps.
  
  
  *************************
  Routing Time Step Summary
  *************************
  Minimum Time Step           :     3.95 sec
  Average Time Step           :     7.96 sec
  Maximum Time Step           :     8.00 sec
  % of Time in Steady State   :     0.00
  Average Iterations per Step :     7.40
  % of Steps Not Converging   :    35.22
  Time Step Frequencies       :
      8.000 -  2.899 sec      :   100.00 %
      2.899 -  1.051 sec      :     0.00 %
      1.051 -  0.381 sec      :     0.00 %
      0.381 -  0.138 sec      :     0.00 %
      0.138 -  0.050 sec      :     0.00 %
  
  
  ***************************
  Subcatchment Runoff Summary
  ***************************
  
  ------------------------------------------------------------------------------------------------------------------------------
                            Total      Total      Total      Total     Imperv       Perv      Total       Total     Peak  Runoff
                           Precip      Runon       Evap      Infil     Runoff     Runoff     Runoff      Runoff   Runoff   Coeff
  Subcatchment                 mm         mm         mm         mm         mm         mm         mm    10^6 ltr      CMS
  ------------------------------------------------------------------------------------------------------------------------------
  sub_1a                    11.16       0.00       0.00       1.93       7.41       1.25       8.66        5.80     2.30   0.776
  sub_21a                   19.24       0.00       0.00       1.85      15.37       1.65      17.02        1.47     0.38   0.885
  sub_10a                   11.16       0.00       0.00       0.77       9.05       0.50       9.55        5.53     2.00   0.856
  sub_2a                    19.24       0.00       0.00       1.15      16.35       1.02      17.38       20.06     5.06   0.903
  sub_2b                    19.24       0.00       0.00       6.54       6.66       5.83      12.49        0.96     0.33   0.649
  sub_2c                    19.24       0.00       0.00       2.23      14.12       1.98      16.10        1.50     0.41   0.837
  sub_21b                   19.24       0.00       0.00       0.02      18.18       0.02      18.19        0.55     0.13   0.946
  sub_21c                   19.24       0.00       0.00       9.00       2.22       8.03      10.25        0.17     0.07   0.533
  sub_2d                    19.24       0.00       0.00       2.60      13.31       2.32      15.63        2.09     0.58   0.812
  sub_2e                    19.24       0.00       0.00       2.84      13.09       2.53      15.63        1.94     0.54   0.812
  sub_2f                    19.24       0.00       0.00       0.40      17.93       0.35      18.28        0.70     0.17   0.950
  sub_20a                   19.24       0.00       0.00       1.84      15.29       1.64      16.93        3.40     0.88   0.880
  
  
  ******************
  Node Depth Summary
  ******************
  
  ---------------------------------------------------------------------------------
                                 Average  Maximum  Maximum  Time of Max    Reported
                                   Depth    Depth      HGL   Occurrence   Max Depth
  Node                 Type       Meters   Meters   Meters  days hr:min      Meters
  ---------------------------------------------------------------------------------
  cso_1                OUTFALL      0.00     0.00     8.91     0  00:00        0.00
  cso_20               OUTFALL      0.00     0.00     8.30     0  00:00        0.00
  cso_2a               OUTFALL      0.00     0.00     8.30     0  00:00        0.00
  cso_21a              OUTFALL      0.00     0.00     8.93     0  00:00        0.00
  cso_10               OUTFALL      0.00     0.00     8.31     0  00:00        0.00
  Wastewater_Treatment_Plant OUTFALL      0.00     0.00     9.11     0  00:00        0.00
  cso_21b              OUTFALL      0.00     0.00     9.12     0  00:00        0.00
  cso_2b               OUTFALL      0.00     0.00     9.12     0  00:00        0.00
  j_1                  STORAGE      1.00     1.96    11.03     2  20:40        1.92
  j_21                 STORAGE      1.03     2.27    12.28     2  21:30        2.27
  j_10                 STORAGE      0.67     1.32     9.73     4  00:00        1.32
  j_2                  STORAGE      1.39     2.75    10.54     2  21:30        2.75
  j_20                 STORAGE      1.03     2.04    10.93     2  21:30        2.03
  
  
  *******************
  Node Inflow Summary
  *******************
  
  -------------------------------------------------------------------------------------------------
                                  Maximum  Maximum                  Lateral       Total        Flow
                                  Lateral    Total  Time of Max      Inflow      Inflow     Balance
                                   Inflow   Inflow   Occurrence      Volume      Volume       Error
  Node                 Type           CMS      CMS  days hr:min    10^6 ltr    10^6 ltr     Percent
  -------------------------------------------------------------------------------------------------
  cso_1                OUTFALL      0.000    1.105     2  20:40           0        4.09       0.000
  cso_20               OUTFALL      0.000    0.641     2  21:30           0        2.39       0.000
  cso_2a               OUTFALL      0.000    4.183     2  21:30           0          19       0.000
  cso_21a              OUTFALL      0.000    0.585     2  21:30           0        1.32       0.000
  cso_10               OUTFALL      0.000    0.000     0  00:00           0           0       0.000 ltr
  Wastewater_Treatment_Plant OUTFALL      0.000    0.333     1  16:39           0        2.71       0.000
  cso_21b              OUTFALL      0.000    0.028     1  16:34           0       0.169       0.000
  cso_2b               OUTFALL      0.000    0.500     1  16:37           0        1.65       0.000
  j_1                  STORAGE      2.298    2.298     1  21:20        8.31        9.69      -1.609
  j_21                 STORAGE      0.585    0.585     2  21:30         2.8         2.8      -0.003
  j_10                 STORAGE      1.999    1.999     1  21:20         5.7         5.7       0.107
  j_2                  STORAGE      7.093    7.093     2  21:30        30.8        31.7      -0.049
  j_20                 STORAGE      0.880    0.880     2  21:30        5.06        5.06       0.024
  
  
  **********************
  Node Surcharge Summary
  **********************
  
  No nodes were surcharged.
  
  
  *********************
  Node Flooding Summary
  *********************
  
  No nodes were flooded.
  
  
  **********************
  Storage Volume Summary
  **********************
  
  ------------------------------------------------------------------------------------------------
                         Average    Avg   Evap  Exfil     Maximum    Max    Time of Max    Maximum
                          Volume   Pcnt   Pcnt   Pcnt      Volume   Pcnt     Occurrence    Outflow
  Storage Unit           1000 m³   Full   Loss   Loss     1000 m³   Full    days hr:min        CMS
  ------------------------------------------------------------------------------------------------
  j_1                      1.635   45.9    0.0    0.0       3.142   88.1       2  20:40      1.105
  j_21                     0.572   43.7    0.0    0.0       1.181   90.3       2  21:30      0.585
  j_10                     2.468   21.2    0.0    0.0       5.598   48.0       4  00:00      0.047
  j_2                      5.200   32.9    0.0    0.0      12.130   76.7       2  21:30      4.183
  j_20                     0.950   34.7    0.0    0.0       2.123   77.5       2  21:30      0.641
  
  
  ***********************
  Outfall Loading Summary
  ***********************
  
  -----------------------------------------------------------
                         Flow       Avg       Max       Total
                         Freq      Flow      Flow      Volume
  Outfall Node           Pcnt       CMS       CMS    10^6 ltr
  -----------------------------------------------------------
  cso_1                 52.71     0.022     1.105       4.094
  cso_20                37.76     0.018     0.641       2.394
  cso_2a                45.08     0.122     4.183      18.979
  cso_21a               33.97     0.011     0.585       1.316
  cso_10                 0.00     0.000     0.000       0.000
  Wastewater_Treatment_Plant  42.45     0.018     0.333       2.706
  cso_21b               42.45     0.001     0.028       0.169
  cso_2b                21.40     0.022     0.500       1.646
  -----------------------------------------------------------
  System                34.48     0.216     5.346      31.305
  
  
  ********************
  Link Flow Summary
  ********************
  
  -----------------------------------------------------------------------------
                                 Maximum  Time of Max   Maximum    Max/    Max/
                                  |Flow|   Occurrence   |Veloc|    Full    Full
  Link                 Type          CMS  days hr:min     m/sec    Flow   Depth
  -----------------------------------------------------------------------------
  p_20_2               PUMP        0.015     0  16:55              1.00
  WWTP_inlet           PUMP        0.333     1  16:39              0.29
  p_21_2               PUMP        0.025     1  16:34              0.60
  CSO_Pump_21          PUMP        0.028     1  16:34              1.00
  p10_1                PUMP        0.047     1  15:53              0.07
  p_2_1                PUMP        0.339     1  16:40              0.68
  CSO_Pump_2           PUMP        0.500     1  16:37              0.90
  cso_weir_1           WEIR        1.105     2  20:40                      0.07
  cso_weir_20          WEIR        0.641     2  21:30                      0.07
  cso_weir_2           WEIR        4.183     2  21:30                      0.14
  cso_weir_21          WEIR        0.585     2  21:30                      0.06
  cso_weir_10          WEIR        0.000     0  00:00                      0.00
  
  
  ***************************
  Flow Classification Summary
  ***************************
  
  -------------------------------------------------------------------------------------
                      Adjusted    ---------- Fraction of Time in Flow Class ---------- 
                       /Actual         Up    Down  Sub   Sup   Up    Down  Norm  Inlet 
  Conduit               Length    Dry  Dry   Dry   Crit  Crit  Crit  Crit  Ltd   Ctrl  
  -------------------------------------------------------------------------------------
  
  
  *************************
  Conduit Surcharge Summary
  *************************
  
  No conduits were surcharged.
  
  
  ***************
  Pumping Summary
  ***************
  
  ---------------------------------------------------------------------------------------------------------
                                                  Min       Avg       Max     Total     Power    % Time Off
                        Percent   Number of      Flow      Flow      Flow    Volume     Usage    Pump Curve
  Pump                 Utilized   Start-Ups       CMS       CMS       CMS  10^6 ltr     Kw-hr    Low   High
  ---------------------------------------------------------------------------------------------------------
  p_20_2                  42.45           1      0.00      0.01      0.01     0.771      2.30    0.0    1.3
  WWTP_inlet              42.45           1      0.00      0.02      0.33     2.706      0.24    0.0    0.0
  p_21_2                  42.45           1      0.00      0.00      0.03     0.152      0.89    0.0    0.0
  CSO_Pump_21             42.45           1      0.00      0.00      0.03     0.169      0.42    0.0    0.0
  p10_1                   42.45           2      0.00      0.00      0.05     0.101      0.18    0.0    0.0
  p_2_1                   21.32        9166      0.00      0.02      0.34     1.279      3.97    0.0    0.0
  CSO_Pump_2              21.40        9133      0.00      0.02      0.50     1.646      5.13    0.0    0.0
  

  Analysis begun on:  Tue May 28 15:11:27 2024
  Analysis ended on:  Tue May 28 15:11:38 2024
  Total elapsed time: 00:00:11